

        *** GPGPU-Sim Simulator Version 3.2.2  [build 0] ***


GPGPU-Sim PTX: simulation mode 0 (can change with PTX_SIM_MODE_FUNC environment variable:
               1=functional simulation only, 0=detailed performance simulator)
GPGPU-Sim: Configuration options:

-network_mode                           1 # Interconnection network mode
-inter_config_file   config_fermi_islip.icnt # Interconnection network config file
-gpgpu_ptx_use_cuobjdump                    1 # Use cuobjdump to extract ptx and sass from binaries
-gpgpu_experimental_lib_support                    0 # Try to extract code from cuda libraries [Broken because of unknown cudaGetExportTable]
-gpgpu_ptx_convert_to_ptxplus                    0 # Convert SASS (native ISA) to ptxplus and run ptxplus
-gpgpu_ptx_force_max_capability                   20 # Force maximum compute capability
-gpgpu_ptx_inst_debug_to_file                    0 # Dump executed instructions' debug information to file
-gpgpu_ptx_inst_debug_file       inst_debug.txt # Executed instructions' debug output file
-gpgpu_ptx_inst_debug_thread_uid                    1 # Thread UID for executed instructions' debug output
-gpgpu_simd_model                       1 # 1 = post-dominator
-gpgpu_shader_core_pipeline              1536:32 # shader core pipeline config, i.e., {<nthread>:<warpsize>}
-gpgpu_tex_cache:l1  4:128:24,L:R:m:N:L,F:128:4,128:2 # per-shader L1 texture cache  (READ-ONLY) config  {<nsets>:<bsize>:<assoc>,<rep>:<wr>:<alloc>:<wr_alloc>,<mshr>:<N>:<merge>,<mq>:<rf>}
-gpgpu_const_cache:l1 64:64:2,L:R:f:N:L,A:2:32,4 # per-shader L1 constant memory cache  (READ-ONLY) config  {<nsets>:<bsize>:<assoc>,<rep>:<wr>:<alloc>:<wr_alloc>,<mshr>:<N>:<merge>,<mq>} 
-gpgpu_cache:il1     4:128:4,L:R:f:N:L,A:2:32,4 # shader L1 instruction cache config  {<nsets>:<bsize>:<assoc>,<rep>:<wr>:<alloc>:<wr_alloc>,<mshr>:<N>:<merge>,<mq>} 
-gpgpu_cache:dl1     32:128:4,L:L:m:N:H,A:32:8,8 # per-shader L1 data cache config  {<nsets>:<bsize>:<assoc>,<rep>:<wr>:<alloc>:<wr_alloc>,<mshr>:<N>:<merge>,<mq> | none}
-gpgpu_cache:dl1PrefL1                 none # per-shader L1 data cache config  {<nsets>:<bsize>:<assoc>,<rep>:<wr>:<alloc>:<wr_alloc>,<mshr>:<N>:<merge>,<mq> | none}
-gpgpu_cache:dl1PreShared                 none # per-shader L1 data cache config  {<nsets>:<bsize>:<assoc>,<rep>:<wr>:<alloc>:<wr_alloc>,<mshr>:<N>:<merge>,<mq> | none}
-gmem_skip_L1D                          0 # global memory access skip L1D cache (implements -Xptxas -dlcm=cg, default=no skip)
-gpgpu_perfect_mem                      0 # enable perfect memory mode (no cache miss)
-n_regfile_gating_group                    4 # group of lanes that should be read/written together)
-gpgpu_clock_gated_reg_file                    0 # enable clock gated reg file for power calculations
-gpgpu_clock_gated_lanes                    0 # enable clock gated lanes for power calculations
-gpgpu_shader_registers                32768 # Number of registers per shader core. Limits number of concurrent CTAs. (default 8192)
-gpgpu_shader_cta                       8 # Maximum number of concurrent CTAs in shader (default 8)
-gpgpu_num_cta_barriers                   16 # Maximum number of named barriers per CTA (default 16)
-gpgpu_n_clusters                      15 # number of processing clusters
-gpgpu_n_cores_per_cluster                    1 # number of simd cores per cluster
-gpgpu_n_cluster_ejection_buffer_size                    8 # number of packets in ejection buffer
-gpgpu_n_ldst_response_buffer_size                    2 # number of response packets in ld/st unit ejection buffer
-gpgpu_shmem_size                   16384 # Size of shared memory per shader core (default 16kB)
-gpgpu_shmem_size                   49152 # Size of shared memory per shader core (default 16kB)
-gpgpu_shmem_size_PrefL1                16384 # Size of shared memory per shader core (default 16kB)
-gpgpu_shmem_size_PrefShared                16384 # Size of shared memory per shader core (default 16kB)
-gpgpu_shmem_num_banks                   32 # Number of banks in the shared memory in each shader core (default 16)
-gpgpu_shmem_limited_broadcast                    0 # Limit shared memory to do one broadcast per cycle (default on)
-gpgpu_shmem_warp_parts                    1 # Number of portions a warp is divided into for shared memory bank conflict check 
-gpgpu_warpdistro_shader                   -1 # Specify which shader core to collect the warp size distribution from
-gpgpu_warp_issue_shader                    0 # Specify which shader core to collect the warp issue distribution from
-gpgpu_local_mem_map                    1 # Mapping from local memory space address to simulated GPU physical address space (default = enabled)
-gpgpu_num_reg_banks                   16 # Number of register banks (default = 8)
-gpgpu_reg_bank_use_warp_id                    0 # Use warp ID in mapping registers to banks (default = off)
-gpgpu_operand_collector_num_units_sp                    6 # number of collector units (default = 4)
-gpgpu_operand_collector_num_units_sfu                    8 # number of collector units (default = 4)
-gpgpu_operand_collector_num_units_mem                    2 # number of collector units (default = 2)
-gpgpu_operand_collector_num_units_gen                    0 # number of collector units (default = 0)
-gpgpu_operand_collector_num_in_ports_sp                    2 # number of collector unit in ports (default = 1)
-gpgpu_operand_collector_num_in_ports_sfu                    1 # number of collector unit in ports (default = 1)
-gpgpu_operand_collector_num_in_ports_mem                    1 # number of collector unit in ports (default = 1)
-gpgpu_operand_collector_num_in_ports_gen                    0 # number of collector unit in ports (default = 0)
-gpgpu_operand_collector_num_out_ports_sp                    2 # number of collector unit in ports (default = 1)
-gpgpu_operand_collector_num_out_ports_sfu                    1 # number of collector unit in ports (default = 1)
-gpgpu_operand_collector_num_out_ports_mem                    1 # number of collector unit in ports (default = 1)
-gpgpu_operand_collector_num_out_ports_gen                    0 # number of collector unit in ports (default = 0)
-gpgpu_coalesce_arch                   13 # Coalescing arch (default = 13, anything else is off for now)
-gpgpu_num_sched_per_core                    2 # Number of warp schedulers per core
-gpgpu_max_insn_issue_per_warp                    1 # Max number of instructions that can be issued per warp in one cycle by scheduler
-gpgpu_simt_core_sim_order                    1 # Select the simulation order of cores in a cluster (0=Fix, 1=Round-Robin)
-gpgpu_pipeline_widths        2,1,1,2,1,1,2 # Pipeline widths ID_OC_SP,ID_OC_SFU,ID_OC_MEM,OC_EX_SP,OC_EX_SFU,OC_EX_MEM,EX_WB
-gpgpu_num_sp_units                     2 # Number of SP units (default=1)
-gpgpu_num_sfu_units                    1 # Number of SF units (default=1)
-gpgpu_num_mem_units                    1 # Number if ldst units (default=1) WARNING: not hooked up to anything
-gpgpu_scheduler                      gto # Scheduler configuration: < lrr | gto | two_level_active > If two_level_active:<num_active_warps>:<inner_prioritization>:<outer_prioritization>For complete list of prioritization values see shader.h enum scheduler_prioritization_typeDefault: gto
-gpgpu_dram_scheduler                    1 # 0 = fifo, 1 = FR-FCFS (defaul)
-gpgpu_dram_partition_queues              8:8:8:8 # i2$:$2d:d2$:$2i
-l2_ideal                               0 # Use a ideal L2 cache that always hit
-gpgpu_cache:dl2     64:128:8,L:B:m:W:L,A:32:4,4:0,32 # unified banked L2 data cache config  {<nsets>:<bsize>:<assoc>,<rep>:<wr>:<alloc>:<wr_alloc>,<mshr>:<N>:<merge>,<mq>}
-gpgpu_cache:dl2_texture_only                    0 # L2 cache used for texture only
-gpgpu_n_mem                            6 # number of memory modules (e.g. memory controllers) in gpu
-gpgpu_n_sub_partition_per_mchannel                    2 # number of memory subpartition in each memory module
-gpgpu_n_mem_per_ctrlr                    2 # number of memory chips per memory controller
-gpgpu_memlatency_stat                   14 # track and display latency statistics 0x2 enables MC, 0x4 enables queue logs
-gpgpu_frfcfs_dram_sched_queue_size                   16 # 0 = unlimited (default); # entries per chip
-gpgpu_dram_return_queue_size                  116 # 0 = unlimited (default); # entries per chip
-gpgpu_dram_buswidth                    4 # default = 4 bytes (8 bytes per cycle at DDR)
-gpgpu_dram_burst_length                    8 # Burst length of each DRAM request (default = 4 data bus cycle)
-dram_data_command_freq_ratio                    4 # Frequency ratio between DRAM data bus and command bus (default = 2 times, i.e. DDR)
-gpgpu_dram_timing_opt nbk=16:CCD=2:RRD=6:RCD=12:RAS=28:RP=12:RC=40: CL=12:WL=4:CDLR=5:WR=12:nbkgrp=4:CCDL=3:RTPL=2 # DRAM timing parameters = {nbk:tCCD:tRRD:tRCD:tRAS:tRP:tRC:CL:WL:tCDLR:tWR:nbkgrp:tCCDL:tRTPL}
-rop_latency                          120 # ROP queue latency (default 85)
-dram_latency                         100 # DRAM latency (default 30)
-gpgpu_mem_addr_mapping dramid@8;00000000.00000000.00000000.00000000.0000RRRR.RRRRRRRR.BBBCCCCB.CCSSSSSS # mapping memory address to dram model {dramid@<start bit>;<memory address map>}
-gpgpu_mem_addr_test                    0 # run sweep test to check address mapping for aliased address
-gpgpu_mem_address_mask                    1 # 0 = old addressing mask, 1 = new addressing mask, 2 = new add. mask + flipped bank sel and chip sel bits
-gpuwattch_xml_file  gpuwattch_gtx480.xml # GPUWattch XML file
-power_simulation_enabled                    1 # Turn on power simulator (1=On, 0=Off)
-power_per_cycle_dump                    0 # Dump detailed power output each cycle
-power_trace_enabled                    0 # produce a file for the power trace (1=On, 0=Off)
-power_trace_zlevel                     6 # Compression level of the power trace output log (0=no comp, 9=highest)
-steady_power_levels_enabled                    0 # produce a file for the steady power levels (1=On, 0=Off)
-steady_state_definition                  8:4 # allowed deviation:number of samples
-gpgpu_max_cycle                        0 # terminates gpu simulation early (0 = no limit)
-gpgpu_max_insn                         0 # terminates gpu simulation early (0 = no limit)
-gpgpu_max_cta                          0 # terminates gpu simulation early (0 = no limit)
-gpgpu_runtime_stat                   500 # display runtime statistics such as dram utilization {<freq>:<flag>}
-liveness_message_freq                    1 # Minimum number of seconds between simulation liveness messages (0 = always print)
-gpgpu_flush_l1_cache                    0 # Flush L1 cache at the end of each kernel call
-gpgpu_flush_l2_cache                    0 # Flush L2 cache at the end of each kernel call
-gpgpu_deadlock_detect                    1 # Stop the simulation at deadlock (1=on (default), 0=off)
-gpgpu_ptx_instruction_classification                    0 # if enabled will classify ptx instruction types per kernel (Max 255 kernels now)
-gpgpu_ptx_sim_mode                     0 # Select between Performance (default) or Functional simulation (1)
-gpgpu_clock_domains 700.0:700.0:700.0:924.0 # Clock Domain Frequencies in MhZ {<Core Clock>:<ICNT Clock>:<L2 Clock>:<DRAM Clock>}
-gpgpu_max_concurrent_kernel                    8 # maximum kernels that can run concurrently on GPU
-gpgpu_cflog_interval                    0 # Interval between each snapshot in control flow logger
-visualizer_enabled                     0 # Turn on visualizer output (1=On, 0=Off)
-visualizer_outputfile                 NULL # Specifies the output log file for visualizer
-visualizer_zlevel                      6 # Compression level of the visualizer output log (0=no comp, 9=highest)
-trace_enabled                          0 # Turn on traces
-trace_components                    none # comma seperated list of traces to enable. Complete list found in trace_streams.tup. Default none
-trace_sampling_core                    0 # The core which is printed using CORE_DPRINTF. Default 0
-trace_sampling_memory_partition                   -1 # The memory partition which is printed using MEMPART_DPRINTF. Default -1 (i.e. all)
-enable_ptx_file_line_stats                    1 # Turn on PTX source line statistic profiling. (1 = On)
-ptx_line_stats_filename gpgpu_inst_stats.txt # Output file for PTX source line statistics.
-save_embedded_ptx                      0 # saves ptx files embedded in binary as <n>.ptx
-keep                                   0 # keep intermediate files created by GPGPU-Sim when interfacing with external programs
-gpgpu_ptx_save_converted_ptxplus                    0 # Saved converted ptxplus to a file
-ptx_opcode_latency_int         4,13,4,5,145 # Opcode latencies for integers <ADD,MAX,MUL,MAD,DIV>Default 1,1,19,25,145
-ptx_opcode_latency_fp          4,13,4,5,39 # Opcode latencies for single precision floating points <ADD,MAX,MUL,MAD,DIV>Default 1,1,1,1,30
-ptx_opcode_latency_dp         8,19,8,8,330 # Opcode latencies for double precision floating points <ADD,MAX,MUL,MAD,DIV>Default 8,8,8,8,335
-ptx_opcode_initiation_int            1,2,2,1,8 # Opcode initiation intervals for integers <ADD,MAX,MUL,MAD,DIV>Default 1,1,4,4,32
-ptx_opcode_initiation_fp            1,2,1,1,4 # Opcode initiation intervals for single precision floating points <ADD,MAX,MUL,MAD,DIV>Default 1,1,1,1,5
-ptx_opcode_initiation_dp         8,16,8,8,130 # Opcode initiation intervals for double precision floating points <ADD,MAX,MUL,MAD,DIV>Default 8,8,8,8,130
DRAM Timing Options:
nbk                                    16 # number of banks
CCD                                     2 # column to column delay
RRD                                     6 # minimal delay between activation of rows in different banks
RCD                                    12 # row to column delay
RAS                                    28 # time needed to activate row
RP                                     12 # time needed to precharge (deactivate) row
RC                                     40 # row cycle time
CDLR                                    5 # switching from write to read (changes tWTR)
WR                                     12 # last data-in to row precharge
CL                                     12 # CAS latency
WL                                      4 # Write latency
nbkgrp                                  4 # number of bank groups
CCDL                                    3 # column to column delay between accesses to different bank groups
RTPL                                    2 # read to precharge delay between accesses to different bank groups
Total number of memory sub partition = 12
addr_dec_mask[CHIP]  = 0000000000000000 	high:64 low:0
addr_dec_mask[BK]    = 000000000000e100 	high:16 low:8
addr_dec_mask[ROW]   = 000000000fff0000 	high:28 low:16
addr_dec_mask[COL]   = 0000000000001eff 	high:13 low:0
addr_dec_mask[BURST] = 000000000000003f 	high:6 low:0
sub_partition_id_mask = 0000000000000100
GPGPU-Sim uArch: clock freqs: 700000000.000000:700000000.000000:700000000.000000:924000000.000000
GPGPU-Sim uArch: clock periods: 0.00000000142857142857:0.00000000142857142857:0.00000000142857142857:0.00000000108225108225
*** Initializing Memory Statistics ***
GPGPU-Sim uArch: interconnect node map (shaderID+MemID to icntID)
GPGPU-Sim uArch: Memory nodes ID start from index: 15
GPGPU-Sim uArch:    0   1   2   3   4
GPGPU-Sim uArch:    5   6   7   8   9
GPGPU-Sim uArch:   10  11  12  13  14
GPGPU-Sim uArch:   15  16  17  18  19
GPGPU-Sim uArch:   20  21  22  23  24
GPGPU-Sim uArch:   25  26
GPGPU-Sim uArch: interconnect node reverse map (icntID to shaderID+MemID)
GPGPU-Sim uArch: Memory nodes start from ID: 15
GPGPU-Sim uArch:    0   1   2   3   4
GPGPU-Sim uArch:    5   6   7   8   9
GPGPU-Sim uArch:   10  11  12  13  14
GPGPU-Sim uArch:   15  16  17  18  19
GPGPU-Sim uArch:   20  21  22  23  24
GPGPU-Sim uArch:   25  26
2fa0b43c3207f68de8c44904a7dfd864  /home/gpgpu-sim/rodinia_3.1/cuda/bfs/bfs
GPGPU-Sim uArch: performance model initialization complete.
GPGPU-Sim PTX: __cudaRegisterFatBinary, fat_cubin_handle = 1, filename=bfs.cu
self exe links to: /home/gpgpu-sim/rodinia_3.1/cuda/bfs/bfs
Running md5sum using "md5sum /home/gpgpu-sim/rodinia_3.1/cuda/bfs/bfs "
Running cuobjdump using "$CUDA_INSTALL_PATH/bin/cuobjdump -ptx -elf -sass /home/gpgpu-sim/rodinia_3.1/cuda/bfs/bfs > _cuobjdump_complete_output_gBCihc"
Parsing file _cuobjdump_complete_output_gBCihc
######### cuobjdump parser ########
## Adding new section ELF
Adding arch: sm_10
Adding identifier: bfs.cu
## Adding new section PTX
Adding ptx filename: _cuobjdump_1.ptx
Adding arch: sm_10
Adding identifier: bfs.cu
Done parsing!!!
GPGPU-Sim PTX: __cudaRegisterFunction _Z7Kernel2PbS_S_S_i : hostFun 0x0x4015c8, fat_cubin_handle = 1
GPGPU-Sim PTX: instruction assembly for function '_Z6KernelP4NodePiPbS2_S2_S1_i'...   done.
GPGPU-Sim PTX: finding reconvergence points for '_Z6KernelP4NodePiPbS2_S2_S1_i'...
GPGPU-Sim PTX: Finding dominators for '_Z6KernelP4NodePiPbS2_S2_S1_i'...
GPGPU-Sim PTX: Finding immediate dominators for '_Z6KernelP4NodePiPbS2_S2_S1_i'...
GPGPU-Sim PTX: Finding postdominators for '_Z6KernelP4NodePiPbS2_S2_S1_i'...
GPGPU-Sim PTX: Finding immediate postdominators for '_Z6KernelP4NodePiPbS2_S2_S1_i'...
GPGPU-Sim PTX: pre-decoding instructions for '_Z6KernelP4NodePiPbS2_S2_S1_i'...
GPGPU-Sim PTX: reconvergence points for _Z6KernelP4NodePiPbS2_S2_S1_i...
GPGPU-Sim PTX:  1 (potential) branch divergence @  PC=0x030 (_1.ptx:73) @%p1 bra $Lt_0_5122;
GPGPU-Sim PTX:    immediate post dominator      @  PC=0x1c8 (_1.ptx:138) exit;
GPGPU-Sim PTX:  2 (potential) branch divergence @  PC=0x068 (_1.ptx:80) @%p2 bra $Lt_0_5122;
GPGPU-Sim PTX:    immediate post dominator      @  PC=0x1c8 (_1.ptx:138) exit;
GPGPU-Sim PTX:  3 (potential) branch divergence @  PC=0x0c0 (_1.ptx:93) @%p3 bra $Lt_0_5122;
GPGPU-Sim PTX:    immediate post dominator      @  PC=0x1c8 (_1.ptx:138) exit;
GPGPU-Sim PTX:  4 (potential) branch divergence @  PC=0x128 (_1.ptx:111) @%p4 bra $Lt_0_4354;
GPGPU-Sim PTX:    immediate post dominator      @  PC=0x1a8 (_1.ptx:131) add.s32 %r8, %r8, 1;
GPGPU-Sim PTX:  5 (potential) branch divergence @  PC=0x1c0 (_1.ptx:134) @%p5 bra $Lt_0_4098;
GPGPU-Sim PTX:    immediate post dominator      @  PC=0x1c8 (_1.ptx:138) exit;
GPGPU-Sim PTX: ... end of reconvergence points for _Z6KernelP4NodePiPbS2_S2_S1_i
GPGPU-Sim PTX: ... done pre-decoding instructions for '_Z6KernelP4NodePiPbS2_S2_S1_i'.
GPGPU-Sim PTX: instruction assembly for function '_Z7Kernel2PbS_S_S_i'...   done.
GPGPU-Sim PTX: finding reconvergence points for '_Z7Kernel2PbS_S_S_i'...
GPGPU-Sim PTX: Finding dominators for '_Z7Kernel2PbS_S_S_i'...
GPGPU-Sim PTX: Finding immediate dominators for '_Z7Kernel2PbS_S_S_i'...
GPGPU-Sim PTX: Finding postdominators for '_Z7Kernel2PbS_S_S_i'...
GPGPU-Sim PTX: Finding immediate postdominators for '_Z7Kernel2PbS_S_S_i'...
GPGPU-Sim PTX: pre-decoding instructions for '_Z7Kernel2PbS_S_S_i'...
GPGPU-Sim PTX: reconvergence points for _Z7Kernel2PbS_S_S_i...
GPGPU-Sim PTX:  1 (potential) branch divergence @  PC=0x200 (_1.ptx:161) @%p1 bra $Lt_1_1794;
GPGPU-Sim PTX:    immediate post dominator      @  PC=0x2a8 (_1.ptx:189) exit;
GPGPU-Sim PTX:  2 (potential) branch divergence @  PC=0x238 (_1.ptx:168) @%p2 bra $Lt_1_1794;
GPGPU-Sim PTX:    immediate post dominator      @  PC=0x2a8 (_1.ptx:189) exit;
GPGPU-Sim PTX: ... end of reconvergence points for _Z7Kernel2PbS_S_S_i
GPGPU-Sim PTX: ... done pre-decoding instructions for '_Z7Kernel2PbS_S_S_i'.
GPGPU-Sim PTX: finished parsing EMBEDDED .ptx file _1.ptx
Adding _cuobjdump_1.ptx with cubin handle 1
GPGPU-Sim PTX: extracting embedded .ptx to temporary file "_ptx_Lt2dYw"
Running: cat _ptx_Lt2dYw | sed 's/.version 1.5/.version 1.4/' | sed 's/, texmode_independent//' | sed 's/\(\.extern \.const\[1\] .b8 \w\+\)\[\]/\1\[1\]/' | sed 's/const\[.\]/const\[0\]/g' > _ptx2_0DZ9ER
GPGPU-Sim PTX: generating ptxinfo using "$CUDA_INSTALL_PATH/bin/ptxas --gpu-name=sm_20 -v _ptx2_0DZ9ER --output-file  /dev/null 2> _ptx_Lt2dYwinfo"
GPGPU-Sim PTX: Kernel '_Z6KernelP4NodePiPbS2_S2_S1_i' : regs=15, lmem=0, smem=0, cmem=84
GPGPU-Sim PTX: Kernel '_Z7Kernel2PbS_S_S_i' : regs=12, lmem=0, smem=0, cmem=68
GPGPU-Sim PTX: removing ptxinfo using "rm -f _ptx_Lt2dYw _ptx2_0DZ9ER _ptx_Lt2dYwinfo"
GPGPU-Sim PTX: loading globals with explicit initializers... 
GPGPU-Sim PTX: finished loading globals (0 bytes total).
GPGPU-Sim PTX: loading constants with explicit initializers...  done.
GPGPU-Sim PTX: __cudaRegisterFunction _Z6KernelP4NodePiPbS2_S2_S1_i : hostFun 0x0x40149f, fat_cubin_handle = 1
Reading File
Read File
Copied Everything to GPU memory
Start traversing the tree

GPGPU-Sim PTX: cudaLaunch for 0x0x40149f (mode=performance simulation) on stream 0
GPGPU-Sim PTX: pushing kernel '_Z6KernelP4NodePiPbS2_S2_S1_i' to stream 0, gridDim= (8,1,1) blockDim = (512,1,1) 
kernel '_Z6KernelP4NodePiPbS2_S2_S1_i' transfer to GPU hardware scheduler
GPGPU-Sim uArch: Shader 1 bind to kernel 1 '_Z6KernelP4NodePiPbS2_S2_S1_i'
GPGPU-Sim uArch: CTA/core = 3, limited by: threads
GPGPU-Sim uArch: core:  1, cta: 0 initialized @(1,0)
GPGPU-Sim uArch: Shader 2 bind to kernel 1 '_Z6KernelP4NodePiPbS2_S2_S1_i'
GPGPU-Sim uArch: core:  2, cta: 0 initialized @(1,0)
GPGPU-Sim uArch: Shader 3 bind to kernel 1 '_Z6KernelP4NodePiPbS2_S2_S1_i'
GPGPU-Sim uArch: core:  3, cta: 0 initialized @(1,0)
GPGPU-Sim uArch: Shader 4 bind to kernel 1 '_Z6KernelP4NodePiPbS2_S2_S1_i'
GPGPU-Sim uArch: core:  4, cta: 0 initialized @(1,0)
GPGPU-Sim uArch: Shader 5 bind to kernel 1 '_Z6KernelP4NodePiPbS2_S2_S1_i'
GPGPU-Sim uArch: core:  5, cta: 0 initialized @(1,0)
GPGPU-Sim uArch: Shader 6 bind to kernel 1 '_Z6KernelP4NodePiPbS2_S2_S1_i'
GPGPU-Sim uArch: core:  6, cta: 0 initialized @(1,0)
GPGPU-Sim uArch: Shader 7 bind to kernel 1 '_Z6KernelP4NodePiPbS2_S2_S1_i'
GPGPU-Sim uArch: core:  7, cta: 0 initialized @(1,0)
GPGPU-Sim uArch: Shader 8 bind to kernel 1 '_Z6KernelP4NodePiPbS2_S2_S1_i'
GPGPU-Sim uArch: core:  8, cta: 0 initialized @(1,0)
GPGPU-Sim uArch: cycles simulated: 500  inst.: 16384 (ipc=32.8) sim_rate=16384 (inst/sec) elapsed = 0:0:00:01 / Thu May 30 06:13:00 2019
GPGPU-Sim uArch: Shader 2 finished CTA #0 (1183,0), 0 CTAs running
GPGPU-Sim uArch: Shader 2 empty (release kernel 1 '_Z6KernelP4NodePiPbS2_S2_S1_i').
GPGPU-Sim uArch: Shader 4 finished CTA #0 (1189,0), 0 CTAs running
GPGPU-Sim uArch: Shader 4 empty (release kernel 1 '_Z6KernelP4NodePiPbS2_S2_S1_i').
GPGPU-Sim uArch: Shader 5 finished CTA #0 (1195,0), 0 CTAs running
GPGPU-Sim uArch: Shader 5 empty (release kernel 1 '_Z6KernelP4NodePiPbS2_S2_S1_i').
GPGPU-Sim uArch: Shader 6 finished CTA #0 (1207,0), 0 CTAs running
GPGPU-Sim uArch: Shader 6 empty (release kernel 1 '_Z6KernelP4NodePiPbS2_S2_S1_i').
GPGPU-Sim uArch: Shader 3 finished CTA #0 (1213,0), 0 CTAs running
GPGPU-Sim uArch: Shader 3 empty (release kernel 1 '_Z6KernelP4NodePiPbS2_S2_S1_i').
GPGPU-Sim uArch: Shader 7 finished CTA #0 (1219,0), 0 CTAs running
GPGPU-Sim uArch: Shader 7 empty (release kernel 1 '_Z6KernelP4NodePiPbS2_S2_S1_i').
GPGPU-Sim uArch: Shader 8 finished CTA #0 (1225,0), 0 CTAs running
GPGPU-Sim uArch: Shader 8 empty (release kernel 1 '_Z6KernelP4NodePiPbS2_S2_S1_i').
GPGPU-Sim uArch: cycles simulated: 6000  inst.: 57565 (ipc= 9.6) sim_rate=28782 (inst/sec) elapsed = 0:0:00:02 / Thu May 30 06:13:02 2019
GPGPU-Sim uArch: Shader 1 finished CTA #0 (6456,0), 0 CTAs running
GPGPU-Sim uArch: Shader 1 empty (release kernel 1 '_Z6KernelP4NodePiPbS2_S2_S1_i').
GPGPU-Sim uArch: GPU detected kernel '_Z6KernelP4NodePiPbS2_S2_S1_i' finished on shader 1.
kernel_name = _Z6KernelP4NodePiPbS2_S2_S1_i 
kernel_launch_uid = 1 
gpu_sim_cycle = 6457
gpu_sim_insn = 57617
gpu_ipc =       8.9232
gpu_tot_sim_cycle = 6457
gpu_tot_sim_insn = 57617
gpu_tot_ipc =       8.9232
gpu_tot_issued_cta = 0
gpu_stall_dramfull = 0
gpu_stall_icnt2sh    = 58
gpu_total_sim_rate=28808

========= Core cache stats =========
L1I_cache:
	L1I_total_cache_accesses = 1555
	L1I_total_cache_misses = 257
	L1I_total_cache_miss_rate = 0.1653
	L1I_total_cache_pending_hits = 0
	L1I_total_cache_reservation_fails = 0
L1D_cache:
	L1D_cache_core[0]: Access = 0, Miss = 0, Miss_rate = -nan, Pending_hits = 0, Reservation_fails = 0
	L1D_cache_core[1]: Access = 89, Miss = 37, Miss_rate = 0.416, Pending_hits = 12, Reservation_fails = 0
	L1D_cache_core[2]: Access = 16, Miss = 4, Miss_rate = 0.250, Pending_hits = 12, Reservation_fails = 0
	L1D_cache_core[3]: Access = 16, Miss = 4, Miss_rate = 0.250, Pending_hits = 12, Reservation_fails = 0
	L1D_cache_core[4]: Access = 16, Miss = 4, Miss_rate = 0.250, Pending_hits = 12, Reservation_fails = 0
	L1D_cache_core[5]: Access = 16, Miss = 4, Miss_rate = 0.250, Pending_hits = 12, Reservation_fails = 0
	L1D_cache_core[6]: Access = 16, Miss = 4, Miss_rate = 0.250, Pending_hits = 12, Reservation_fails = 0
	L1D_cache_core[7]: Access = 16, Miss = 4, Miss_rate = 0.250, Pending_hits = 12, Reservation_fails = 0
	L1D_cache_core[8]: Access = 16, Miss = 4, Miss_rate = 0.250, Pending_hits = 12, Reservation_fails = 0
	L1D_cache_core[9]: Access = 0, Miss = 0, Miss_rate = -nan, Pending_hits = 0, Reservation_fails = 0
	L1D_cache_core[10]: Access = 0, Miss = 0, Miss_rate = -nan, Pending_hits = 0, Reservation_fails = 0
	L1D_cache_core[11]: Access = 0, Miss = 0, Miss_rate = -nan, Pending_hits = 0, Reservation_fails = 0
	L1D_cache_core[12]: Access = 0, Miss = 0, Miss_rate = -nan, Pending_hits = 0, Reservation_fails = 0
	L1D_cache_core[13]: Access = 0, Miss = 0, Miss_rate = -nan, Pending_hits = 0, Reservation_fails = 0
	L1D_cache_core[14]: Access = 0, Miss = 0, Miss_rate = -nan, Pending_hits = 0, Reservation_fails = 0
	L1D_total_cache_accesses = 201
	L1D_total_cache_misses = 65
	L1D_total_cache_miss_rate = 0.3234
	L1D_total_cache_pending_hits = 96
	L1D_total_cache_reservation_fails = 0
	L1D_cache_data_port_util = 0.003
	L1D_cache_fill_port_util = 0.003
L1C_cache:
	L1C_total_cache_accesses = 289
	L1C_total_cache_misses = 128
	L1C_total_cache_miss_rate = 0.4429
	L1C_total_cache_pending_hits = 0
	L1C_total_cache_reservation_fails = 0
L1T_cache:
	L1T_total_cache_accesses = 0
	L1T_total_cache_misses = 0
	L1T_total_cache_pending_hits = 0
	L1T_total_cache_reservation_fails = 0

Total_core_cache_stats:
	Total_core_cache_stats_breakdown[GLOBAL_ACC_R][HIT] = 39
	Total_core_cache_stats_breakdown[GLOBAL_ACC_R][HIT_RESERVED] = 96
	Total_core_cache_stats_breakdown[GLOBAL_ACC_R][MISS] = 45
	Total_core_cache_stats_breakdown[CONST_ACC_R][HIT] = 161
	Total_core_cache_stats_breakdown[CONST_ACC_R][MISS] = 128
	Total_core_cache_stats_breakdown[GLOBAL_ACC_W][HIT] = 1
	Total_core_cache_stats_breakdown[GLOBAL_ACC_W][MISS] = 20
	Total_core_cache_stats_breakdown[INST_ACC_R][HIT] = 1298
	Total_core_cache_stats_breakdown[INST_ACC_R][MISS] = 257
Shader 0 warp_id issue ditsribution:
warp_id:

distro:

gpgpu_n_tot_thrd_icount = 70592
gpgpu_n_tot_w_icount = 2206
gpgpu_n_stall_shd_mem = 0
gpgpu_n_mem_read_local = 0
gpgpu_n_mem_write_local = 0
gpgpu_n_mem_read_global = 45
gpgpu_n_mem_write_global = 21
gpgpu_n_mem_texture = 0
gpgpu_n_mem_const = 8
gpgpu_n_load_insn  = 4148
gpgpu_n_store_insn = 21
gpgpu_n_shmem_insn = 0
gpgpu_n_tex_insn = 0
gpgpu_n_const_mem_insn = 0
gpgpu_n_param_mem_insn = 8225
gpgpu_n_shmem_bkconflict = 0
gpgpu_n_cache_bkconflict = 0
gpgpu_n_intrawarp_mshr_merge = 0
gpgpu_n_cmem_portconflict = 0
gpgpu_stall_shd_mem[c_mem][bk_conf] = 0
gpgpu_stall_shd_mem[c_mem][mshr_rc] = 0
gpgpu_stall_shd_mem[c_mem][icnt_rc] = 0
gpgpu_stall_shd_mem[c_mem][data_port_stall] = 0
gpgpu_stall_shd_mem[t_mem][mshr_rc] = 0
gpgpu_stall_shd_mem[t_mem][icnt_rc] = 0
gpgpu_stall_shd_mem[t_mem][data_port_stall] = 0
gpgpu_stall_shd_mem[s_mem][bk_conf] = 0
gpgpu_stall_shd_mem[gl_mem][bk_conf] = 0
gpgpu_stall_shd_mem[gl_mem][coal_stall] = 0
gpgpu_stall_shd_mem[gl_mem][data_port_stall] = 0
gpgpu_stall_shd_mem[g_mem_ld][mshr_rc] = 0
gpgpu_stall_shd_mem[g_mem_ld][icnt_rc] = 0
gpgpu_stall_shd_mem[g_mem_ld][wb_icnt_rc] = 0
gpgpu_stall_shd_mem[g_mem_ld][wb_rsrv_fail] = 0
gpgpu_stall_shd_mem[g_mem_st][mshr_rc] = 0
gpgpu_stall_shd_mem[g_mem_st][icnt_rc] = 0
gpgpu_stall_shd_mem[g_mem_st][wb_icnt_rc] = 0
gpgpu_stall_shd_mem[g_mem_st][wb_rsrv_fail] = 0
gpgpu_stall_shd_mem[l_mem_ld][mshr_rc] = 0
gpgpu_stall_shd_mem[l_mem_ld][icnt_rc] = 0
gpgpu_stall_shd_mem[l_mem_ld][wb_icnt_rc] = 0
gpgpu_stall_shd_mem[l_mem_ld][wb_rsrv_fail] = 0
gpgpu_stall_shd_mem[l_mem_st][mshr_rc] = 0
gpgpu_stall_shd_mem[l_mem_st][icnt_rc] = 0
gpgpu_stall_shd_mem[l_mem_ld][wb_icnt_rc] = 0
gpgpu_stall_shd_mem[l_mem_ld][wb_rsrv_fail] = 0
gpu_reg_bank_conflict_stalls = 0
Warp Occupancy Distribution:
Stall:32	W0_Idle:14642	W0_Scoreboard:12924	W1:286	W2:0	W3:0	W4:0	W5:0	W6:0	W7:0	W8:0	W9:0	W10:0	W11:0	W12:0	W13:0	W14:0	W15:0	W16:0	W17:0	W18:0	W19:0	W20:0	W21:0	W22:0	W23:0	W24:0	W25:0	W26:0	W27:0	W28:0	W29:0	W30:0	W31:0	W32:1920
traffic_breakdown_coretomem[CONST_ACC_R] = 64 {8:8,}
traffic_breakdown_coretomem[GLOBAL_ACC_R] = 360 {8:45,}
traffic_breakdown_coretomem[GLOBAL_ACC_W] = 840 {40:21,}
traffic_breakdown_coretomem[INST_ACC_R] = 144 {8:18,}
traffic_breakdown_memtocore[CONST_ACC_R] = 576 {72:8,}
traffic_breakdown_memtocore[GLOBAL_ACC_R] = 6120 {136:45,}
traffic_breakdown_memtocore[GLOBAL_ACC_W] = 168 {8:21,}
traffic_breakdown_memtocore[INST_ACC_R] = 2448 {136:18,}
maxmrqlatency = 11 
maxdqlatency = 0 
maxmflatency = 278 
averagemflatency = 259 
max_icnt2mem_latency = 22 
max_icnt2sh_latency = 6456 
mrq_lat_table:77 	4 	3 	6 	0 	0 	0 	0 	0 	0 	0 	0 	0 	0 	0 	0 	0 	0 	0 	0 	0 	0 	0 	0 	0 	0 	0 	0 	0 	0 	0 	0 	
dq_lat_table:0 	0 	0 	0 	0 	0 	0 	0 	0 	0 	0 	0 	0 	0 	0 	0 	0 	0 	0 	0 	0 	0 	0 	0 	0 	0 	0 	0 	0 	0 	0 	0 	
mf_lat_table:0 	0 	0 	0 	0 	0 	0 	22 	52 	0 	0 	0 	0 	0 	0 	0 	0 	0 	0 	0 	0 	0 	0 	0 	0 	0 	0 	0 	0 	0 	0 	0 	
icnt2mem_lat_table:0 	0 	0 	88 	4 	0 	0 	0 	0 	0 	0 	0 	0 	0 	0 	0 	0 	0 	0 	0 	0 	0 	0 	0 	
icnt2sh_lat_table:0 	0 	0 	45 	8 	0 	0 	0 	0 	0 	1 	7 	13 	0 	0 	0 	0 	0 	0 	0 	0 	0 	0 	0 	
mf_lat_pw_table:0 	0 	0 	0 	0 	0 	0 	8 	3 	0 	0 	0 	0 	0 	0 	0 	0 	0 	0 	0 	0 	0 	0 	0 	0 	0 	0 	0 	0 	0 	0 	0 	
maximum concurrent accesses to same row:
dram[0]:         1         0         0         0         0         0         0         0         0         0         0         0         0         0         0         0 
dram[1]:         0         0         0         0         0         0         0         0         0         0         0         0         0         0         0         0 
dram[2]:         0         0         0         0         0         0         0         0         0         0         0         0         0         0         0         0 
dram[3]:         0         0         0         0         0         0         0         0         0         0         0         0         0         0         0         0 
dram[4]:         0         0         0         0         0         0         0         0         0         0         0         0         0         0         0         0 
dram[5]:         0         0         0         0         0         0         0         0         0         0         0         0         0         0         0         0 
maximum service time to same row:
dram[0]:       609         0         0         0         0         0         0         0         0         0       850       862         0         0         0         0 
dram[1]:      1125         0         0         0         0         0         0         0         0         0       871       882         0         0         0         0 
dram[2]:         0         0         0         0         0      1454         0         0         0         0       857       866         0         0         0         0 
dram[3]:         0         0         0         0         0         0         0         0         0         0       879       887         0         0         0         0 
dram[4]:         0         0         0         0         0         0      1776         0         0         0       854       846         0         0         0         0 
dram[5]:         0         0         0         0         0         0         0         0         0         0       875       866         0         0         0         0 
average row accesses per activate:
dram[0]:  1.000000      -nan      -nan      -nan      -nan      -nan      -nan      -nan      -nan      -nan  5.000000  7.000000      -nan      -nan      -nan      -nan 
dram[1]:  2.000000      -nan      -nan      -nan      -nan      -nan      -nan      -nan      -nan      -nan 10.000000  8.000000      -nan      -nan      -nan      -nan 
dram[2]:      -nan      -nan      -nan      -nan      -nan  1.000000      -nan      -nan      -nan      -nan  6.000000  5.000000      -nan      -nan      -nan      -nan 
dram[3]:      -nan      -nan      -nan      -nan      -nan      -nan      -nan      -nan      -nan      -nan  5.000000  4.000000      -nan      -nan      -nan      -nan 
dram[4]:      -nan      -nan      -nan      -nan      -nan      -nan  1.000000      -nan      -nan      -nan  8.000000  8.000000      -nan      -nan      -nan      -nan 
dram[5]:      -nan      -nan      -nan      -nan      -nan      -nan      -nan      -nan      -nan      -nan 13.000000  4.000000      -nan      -nan      -nan      -nan 
average row locality = 90/18 = 5.000000
number of total memory accesses made:
dram[0]:         0         0         0         0         0         0         0         0         0         0         0         0         0         0         0         0 
dram[1]:         0         0         0         0         0         0         0         0         0         0         0         0         0         0         0         0 
dram[2]:         0         0         0         0         0         0         0         0         0         0         0         0         0         0         0         0 
dram[3]:         0         0         0         0         0         0         0         0         0         0         0         0         0         0         0         0 
dram[4]:         0         0         0         0         0         0         0         0         0         0         0         0         0         0         0         0 
dram[5]:         0         0         0         0         0         0         0         0         0         0         0         0         0         0         0         0 
total accesses: 0
min_bank_accesses = 0!
min_chip_accesses = 0!
number of total read accesses:
dram[0]:         3         0         0         0         0         0         0         0         0         0         4         6         0         0         0         0 
dram[1]:         2         0         0         0         0         0         0         0         0         0         6         6         0         0         0         0 
dram[2]:         0         0         0         0         0         1         0         0         0         0         5         4         0         0         0         0 
dram[3]:         0         0         0         0         0         0         0         0         0         0         4         4         0         0         0         0 
dram[4]:         0         0         0         0         0         0         1         0         0         0         7         5         0         0         0         0 
dram[5]:         0         0         0         0         0         0         0         0         0         0         9         3         0         0         0         0 
total reads: 70
min_bank_accesses = 0!
chip skew: 14/8 = 1.75
number of total write accesses:
dram[0]:         0         0         0         0         0         0         0         0         0         0         1         1         0         0         0         0 
dram[1]:         0         0         0         0         0         0         0         0         0         0         4         2         0         0         0         0 
dram[2]:         0         0         0         0         0         0         0         0         0         0         1         1         0         0         0         0 
dram[3]:         0         0         0         0         0         0         0         0         0         0         1         0         0         0         0         0 
dram[4]:         0         0         0         0         0         0         0         0         0         0         1         3         0         0         0         0 
dram[5]:         0         0         0         0         0         0         0         0         0         0         4         1         0         0         0         0 
total reads: 20
min_bank_accesses = 0!
chip skew: 6/1 = 6.00
average mf latency per bank:
dram[0]:        712    none      none      none      none      none      none      none      none      none         209       226    none      none      none      none  
dram[1]:          0    none      none      none      none      none      none      none      none      none         151       193    none      none      none      none  
dram[2]:     none      none      none      none      none         268    none      none      none      none         216       209    none      none      none      none  
dram[3]:     none      none      none      none      none      none      none      none      none      none         206       262    none      none      none      none  
dram[4]:     none      none      none      none      none      none         267    none      none      none         247       159    none      none      none      none  
dram[5]:     none      none      none      none      none      none      none      none      none      none         176       197    none      none      none      none  
maximum mf latency per bank:
dram[0]:        278         0         0         0         0         0         0         0         0         0       271       271         0         0         0         0
dram[1]:          0         0         0         0         0         0         0         0         0         0       268       271         0         0         0         0
dram[2]:          0         0         0         0         0       268         0         0         0         0       271       272         0         0         0         0
dram[3]:          0         0         0         0         0         0         0         0         0         0       268       273         0         0         0         0
dram[4]:          0         0         0         0         0         0       267         0         0         0       272       271         0         0         0         0
dram[5]:          0         0         0         0         0         0         0         0         0         0       268       271         0         0         0         0
Memory Partition 0: 
Cache L2_bank_000:
MSHR contents

Cache L2_bank_001:
MSHR contents

In Dram Latency Queue (total = 0): 
DRAM[0]: 16 bks, busW=4 BL=8 CL=12, tRRD=2 tCCD=6, tRCD=12 tRAS=28 tRP=12 tRC=40
n_cmd=8522 n_nop=8487 n_act=5 n_pre=2 n_req=15 n_rd=26 n_write=2 bw_util=0.006571
n_activity=287 dram_eff=0.1951
bk0: 6a 8449i bk1: 0a 8520i bk2: 0a 8522i bk3: 0a 8522i bk4: 0a 8523i bk5: 0a 8523i bk6: 0a 8523i bk7: 0a 8523i bk8: 0a 8523i bk9: 0a 8523i bk10: 8a 8482i bk11: 12a 8468i bk12: 0a 8521i bk13: 0a 8521i bk14: 0a 8521i bk15: 0a 8521i 
dram_util_bins: 0 0 0 0 0 0 0 0 0 0
dram_eff_bins: 0 0 0 0 0 0 0 0 0 0
mrqq: max=2 avg=0.00469373
Memory Partition 1: 
Cache L2_bank_002:
MSHR contents

Cache L2_bank_003:
MSHR contents

In Dram Latency Queue (total = 0): 
DRAM[1]: 16 bks, busW=4 BL=8 CL=12, tRRD=2 tCCD=6, tRCD=12 tRAS=28 tRP=12 tRC=40
n_cmd=8522 n_nop=8485 n_act=3 n_pre=0 n_req=20 n_rd=28 n_write=6 bw_util=0.007979
n_activity=282 dram_eff=0.2411
bk0: 4a 8501i bk1: 0a 8522i bk2: 0a 8522i bk3: 0a 8522i bk4: 0a 8522i bk5: 0a 8523i bk6: 0a 8523i bk7: 0a 8523i bk8: 0a 8523i bk9: 0a 8523i bk10: 12a 8442i bk11: 12a 8457i bk12: 0a 8521i bk13: 0a 8521i bk14: 0a 8521i bk15: 0a 8521i 
dram_util_bins: 0 0 0 0 0 0 0 0 0 0
dram_eff_bins: 0 0 0 0 0 0 0 0 0 0
mrqq: max=1 avg=0.000586717
Memory Partition 2: 
Cache L2_bank_004:
MSHR contents

Cache L2_bank_005:
MSHR contents
MSHR: tag=0x80021080, atomic=0 1 entries : 0x7f974cb26a90 :  mf: uid=  2065, sid01:w00, part=2, addr=0x800210c0, load , size=32, unknown  status = IN_PARTITION_DRAM (6454), 

In Dram Latency Queue (total = 0): 
DRAM[2]: 16 bks, busW=4 BL=8 CL=12, tRRD=2 tCCD=6, tRCD=12 tRAS=28 tRP=12 tRC=40
n_cmd=8522 n_nop=8497 n_act=3 n_pre=0 n_req=12 n_rd=20 n_write=2 bw_util=0.005163
n_activity=180 dram_eff=0.2444
bk0: 0a 8522i bk1: 0a 8523i bk2: 0a 8523i bk3: 0a 8523i bk4: 0a 8523i bk5: 2a 8507i bk6: 0a 8522i bk7: 0a 8522i bk8: 0a 8522i bk9: 0a 8522i bk10: 10a 8477i bk11: 8a 8478i bk12: 0a 8520i bk13: 0a 8521i bk14: 0a 8521i bk15: 0a 8522i 
dram_util_bins: 0 0 0 0 0 0 0 0 0 0
dram_eff_bins: 0 0 0 0 0 0 0 0 0 0
mrqq: max=2 avg=0.00293358
Memory Partition 3: 
Cache L2_bank_006:
MSHR contents

Cache L2_bank_007:
MSHR contents

In Dram Latency Queue (total = 0): 
DRAM[3]: 16 bks, busW=4 BL=8 CL=12, tRRD=2 tCCD=6, tRCD=12 tRAS=28 tRP=12 tRC=40
n_cmd=8522 n_nop=8503 n_act=2 n_pre=0 n_req=9 n_rd=16 n_write=1 bw_util=0.00399
n_activity=122 dram_eff=0.2787
bk0: 0a 8521i bk1: 0a 8522i bk2: 0a 8522i bk3: 0a 8522i bk4: 0a 8522i bk5: 0a 8523i bk6: 0a 8523i bk7: 0a 8523i bk8: 0a 8523i bk9: 0a 8523i bk10: 8a 8483i bk11: 8a 8487i bk12: 0a 8521i bk13: 0a 8521i bk14: 0a 8521i bk15: 0a 8521i 
dram_util_bins: 0 0 0 0 0 0 0 0 0 0
dram_eff_bins: 0 0 0 0 0 0 0 0 0 0
mrqq: max=0 avg=0
Memory Partition 4: 
Cache L2_bank_008:
MSHR contents

Cache L2_bank_009:
MSHR contents

In Dram Latency Queue (total = 0): 
DRAM[4]: 16 bks, busW=4 BL=8 CL=12, tRRD=2 tCCD=6, tRCD=12 tRAS=28 tRP=12 tRC=40
n_cmd=8522 n_nop=8489 n_act=3 n_pre=0 n_req=17 n_rd=26 n_write=4 bw_util=0.007041
n_activity=231 dram_eff=0.2597
bk0: 0a 8522i bk1: 0a 8523i bk2: 0a 8523i bk3: 0a 8523i bk4: 0a 8523i bk5: 0a 8523i bk6: 2a 8506i bk7: 0a 8522i bk8: 0a 8522i bk9: 0a 8523i bk10: 14a 8463i bk11: 10a 8454i bk12: 0a 8519i bk13: 0a 8520i bk14: 0a 8521i bk15: 0a 8521i 
dram_util_bins: 0 0 0 0 0 0 0 0 0 0
dram_eff_bins: 0 0 0 0 0 0 0 0 0 0
mrqq: max=2 avg=0.00398967
Memory Partition 5: 
Cache L2_bank_010:
MSHR contents

Cache L2_bank_011:
MSHR contents

In Dram Latency Queue (total = 0): 
DRAM[5]: 16 bks, busW=4 BL=8 CL=12, tRRD=2 tCCD=6, tRCD=12 tRAS=28 tRP=12 tRC=40
n_cmd=8522 n_nop=8491 n_act=2 n_pre=0 n_req=17 n_rd=24 n_write=5 bw_util=0.006806
n_activity=216 dram_eff=0.2685
bk0: 0a 8521i bk1: 0a 8522i bk2: 0a 8522i bk3: 0a 8522i bk4: 0a 8522i bk5: 0a 8522i bk6: 0a 8522i bk7: 0a 8523i bk8: 0a 8523i bk9: 0a 8524i bk10: 18a 8428i bk11: 6a 8468i bk12: 0a 8520i bk13: 0a 8521i bk14: 0a 8521i bk15: 0a 8521i 
dram_util_bins: 0 0 0 0 0 0 0 0 0 0
dram_eff_bins: 0 0 0 0 0 0 0 0 0 0
mrqq: max=1 avg=0.00070406

========= L2 cache stats =========
L2_cache_bank[0]: Access = 21, Miss = 7, Miss_rate = 0.333, Pending_hits = 6, Reservation_fails = 225
L2_cache_bank[1]: Access = 6, Miss = 6, Miss_rate = 1.000, Pending_hits = 0, Reservation_fails = 0
L2_cache_bank[2]: Access = 15, Miss = 8, Miss_rate = 0.533, Pending_hits = 3, Reservation_fails = 108
L2_cache_bank[3]: Access = 6, Miss = 6, Miss_rate = 1.000, Pending_hits = 0, Reservation_fails = 0
L2_cache_bank[4]: Access = 5, Miss = 5, Miss_rate = 1.000, Pending_hits = 0, Reservation_fails = 0
L2_cache_bank[5]: Access = 5, Miss = 5, Miss_rate = 1.000, Pending_hits = 0, Reservation_fails = 0
L2_cache_bank[6]: Access = 4, Miss = 4, Miss_rate = 1.000, Pending_hits = 0, Reservation_fails = 0
L2_cache_bank[7]: Access = 4, Miss = 4, Miss_rate = 1.000, Pending_hits = 0, Reservation_fails = 0
L2_cache_bank[8]: Access = 9, Miss = 8, Miss_rate = 0.889, Pending_hits = 0, Reservation_fails = 0
L2_cache_bank[9]: Access = 5, Miss = 5, Miss_rate = 1.000, Pending_hits = 0, Reservation_fails = 0
L2_cache_bank[10]: Access = 9, Miss = 9, Miss_rate = 1.000, Pending_hits = 0, Reservation_fails = 0
L2_cache_bank[11]: Access = 3, Miss = 3, Miss_rate = 1.000, Pending_hits = 0, Reservation_fails = 0
L2_total_cache_accesses = 92
L2_total_cache_misses = 70
L2_total_cache_miss_rate = 0.7609
L2_total_cache_pending_hits = 9
L2_total_cache_reservation_fails = 333
L2_total_cache_breakdown:
	L2_cache_stats_breakdown[GLOBAL_ACC_R][MISS] = 45
	L2_cache_stats_breakdown[CONST_ACC_R][HIT] = 4
	L2_cache_stats_breakdown[CONST_ACC_R][HIT_RESERVED] = 3
	L2_cache_stats_breakdown[CONST_ACC_R][MISS] = 1
	L2_cache_stats_breakdown[CONST_ACC_R][RESERVATION_FAIL] = 109
	L2_cache_stats_breakdown[GLOBAL_ACC_W][HIT] = 1
	L2_cache_stats_breakdown[GLOBAL_ACC_W][MISS] = 20
	L2_cache_stats_breakdown[INST_ACC_R][HIT] = 8
	L2_cache_stats_breakdown[INST_ACC_R][HIT_RESERVED] = 6
	L2_cache_stats_breakdown[INST_ACC_R][MISS] = 4
	L2_cache_stats_breakdown[INST_ACC_R][RESERVATION_FAIL] = 224
L2_cache_data_port_util = 0.001
L2_cache_fill_port_util = 0.004

icnt_total_pkts_mem_to_simt=360
icnt_total_pkts_simt_to_mem=113
LD_mem_lat_dist  0 0 0 0 0 0 0 0 0 0 0 0 0 0 0 0 0 0 0 0 0 0 0 0 0 0 0
ST_mem_lat_dist  0 0 0 0 0 0 0 0 0 0 0 0 0 0 0 0 0 0 0 0 0 0 0 0 0 0 0
----------------------------Interconnect-DETAILS--------------------------------
Class 0:
Packet latency average = 8.99457
	minimum = 6
	maximum = 21
Network latency average = 8.41848
	minimum = 6
	maximum = 20
Slowest packet = 7
Flit latency average = 7.0148
	minimum = 6
	maximum = 20
Slowest flit = 7
Fragmentation average = 0
	minimum = 0
	maximum = 0
Injected packet rate average = 0.00105542
	minimum = 0 (at node 0)
	maximum = 0.00665944 (at node 1)
Accepted packet rate average = 0.00105542
	minimum = 0 (at node 0)
	maximum = 0.00665944 (at node 1)
Injected flit rate average = 0.0027131
	minimum = 0 (at node 0)
	maximum = 0.013164 (at node 15)
Accepted flit rate average= 0.0027131
	minimum = 0 (at node 0)
	maximum = 0.0199783 (at node 1)
Injected packet length average = 2.57065
Accepted packet length average = 2.57065
Total in-flight flits = 0 (0 measured)
====== Overall Traffic Statistics ======
====== Traffic class 0 ======
Packet latency average = 8.99457 (1 samples)
	minimum = 6 (1 samples)
	maximum = 21 (1 samples)
Network latency average = 8.41848 (1 samples)
	minimum = 6 (1 samples)
	maximum = 20 (1 samples)
Flit latency average = 7.0148 (1 samples)
	minimum = 6 (1 samples)
	maximum = 20 (1 samples)
Fragmentation average = 0 (1 samples)
	minimum = 0 (1 samples)
	maximum = 0 (1 samples)
Injected packet rate average = 0.00105542 (1 samples)
	minimum = 0 (1 samples)
	maximum = 0.00665944 (1 samples)
Accepted packet rate average = 0.00105542 (1 samples)
	minimum = 0 (1 samples)
	maximum = 0.00665944 (1 samples)
Injected flit rate average = 0.0027131 (1 samples)
	minimum = 0 (1 samples)
	maximum = 0.013164 (1 samples)
Accepted flit rate average = 0.0027131 (1 samples)
	minimum = 0 (1 samples)
	maximum = 0.0199783 (1 samples)
Injected packet size average = 2.57065 (1 samples)
Accepted packet size average = 2.57065 (1 samples)
Hops average = 1 (1 samples)
----------------------------END-of-Interconnect-DETAILS-------------------------


gpgpu_simulation_time = 0 days, 0 hrs, 0 min, 2 sec (2 sec)
gpgpu_simulation_rate = 28808 (inst/sec)
gpgpu_simulation_rate = 3228 (cycle/sec)

GPGPU-Sim PTX: cudaLaunch for 0x0x4015c8 (mode=performance simulation) on stream 0
GPGPU-Sim PTX: pushing kernel '_Z7Kernel2PbS_S_S_i' to stream 0, gridDim= (8,1,1) blockDim = (512,1,1) 
kernel '_Z7Kernel2PbS_S_S_i' transfer to GPU hardware scheduler
GPGPU-Sim uArch: Shader 9 bind to kernel 2 '_Z7Kernel2PbS_S_S_i'
GPGPU-Sim uArch: CTA/core = 3, limited by: threads
GPGPU-Sim uArch: core:  9, cta: 0 initialized @(1,6457)
GPGPU-Sim uArch: Shader 10 bind to kernel 2 '_Z7Kernel2PbS_S_S_i'
GPGPU-Sim uArch: core: 10, cta: 0 initialized @(1,6457)
GPGPU-Sim uArch: Shader 11 bind to kernel 2 '_Z7Kernel2PbS_S_S_i'
GPGPU-Sim uArch: core: 11, cta: 0 initialized @(1,6457)
GPGPU-Sim uArch: Shader 12 bind to kernel 2 '_Z7Kernel2PbS_S_S_i'
GPGPU-Sim uArch: core: 12, cta: 0 initialized @(1,6457)
GPGPU-Sim uArch: Shader 13 bind to kernel 2 '_Z7Kernel2PbS_S_S_i'
GPGPU-Sim uArch: core: 13, cta: 0 initialized @(1,6457)
GPGPU-Sim uArch: Shader 14 bind to kernel 2 '_Z7Kernel2PbS_S_S_i'
GPGPU-Sim uArch: core: 14, cta: 0 initialized @(1,6457)
GPGPU-Sim uArch: Shader 0 bind to kernel 2 '_Z7Kernel2PbS_S_S_i'
GPGPU-Sim uArch: core:  0, cta: 0 initialized @(1,6457)
GPGPU-Sim uArch: Shader 1 bind to kernel 2 '_Z7Kernel2PbS_S_S_i'
GPGPU-Sim uArch: core:  1, cta: 0 initialized @(1,6457)
GPGPU-Sim PTX: 100000 instructions simulated : ctaid=(1,0,0) tid=(313,0,0)
GPGPU-Sim uArch: Shader 14 finished CTA #0 (963,6457), 0 CTAs running
GPGPU-Sim uArch: Shader 14 empty (release kernel 2 '_Z7Kernel2PbS_S_S_i').
GPGPU-Sim uArch: Shader 0 finished CTA #0 (970,6457), 0 CTAs running
GPGPU-Sim uArch: Shader 0 empty (release kernel 2 '_Z7Kernel2PbS_S_S_i').
GPGPU-Sim uArch: Shader 11 finished CTA #0 (1039,6457), 0 CTAs running
GPGPU-Sim uArch: Shader 11 empty (release kernel 2 '_Z7Kernel2PbS_S_S_i').
GPGPU-Sim uArch: Shader 12 finished CTA #0 (1041,6457), 0 CTAs running
GPGPU-Sim uArch: Shader 12 empty (release kernel 2 '_Z7Kernel2PbS_S_S_i').
GPGPU-Sim uArch: Shader 1 finished CTA #0 (1043,6457), 0 CTAs running
GPGPU-Sim uArch: Shader 1 empty (release kernel 2 '_Z7Kernel2PbS_S_S_i').
GPGPU-Sim uArch: Shader 13 finished CTA #0 (1049,6457), 0 CTAs running
GPGPU-Sim uArch: Shader 13 empty (release kernel 2 '_Z7Kernel2PbS_S_S_i').
GPGPU-Sim uArch: Shader 9 finished CTA #0 (1063,6457), 0 CTAs running
GPGPU-Sim uArch: Shader 9 empty (release kernel 2 '_Z7Kernel2PbS_S_S_i').
GPGPU-Sim uArch: Shader 10 finished CTA #0 (1073,6457), 0 CTAs running
GPGPU-Sim uArch: Shader 10 empty (release kernel 2 '_Z7Kernel2PbS_S_S_i').
GPGPU-Sim uArch: GPU detected kernel '_Z7Kernel2PbS_S_S_i' finished on shader 10.
kernel_name = _Z7Kernel2PbS_S_S_i 
kernel_launch_uid = 2 
gpu_sim_cycle = 1074
gpu_sim_insn = 57464
gpu_ipc =      53.5047
gpu_tot_sim_cycle = 7531
gpu_tot_sim_insn = 115081
gpu_tot_ipc =      15.2810
gpu_tot_issued_cta = 0
gpu_stall_dramfull = 0
gpu_stall_icnt2sh    = 61
gpu_total_sim_rate=57540

========= Core cache stats =========
L1I_cache:
	L1I_total_cache_accesses = 3117
	L1I_total_cache_misses = 617
	L1I_total_cache_miss_rate = 0.1979
	L1I_total_cache_pending_hits = 0
	L1I_total_cache_reservation_fails = 0
L1D_cache:
	L1D_cache_core[0]: Access = 16, Miss = 4, Miss_rate = 0.250, Pending_hits = 12, Reservation_fails = 0
	L1D_cache_core[1]: Access = 113, Miss = 45, Miss_rate = 0.398, Pending_hits = 24, Reservation_fails = 0
	L1D_cache_core[2]: Access = 16, Miss = 4, Miss_rate = 0.250, Pending_hits = 12, Reservation_fails = 0
	L1D_cache_core[3]: Access = 16, Miss = 4, Miss_rate = 0.250, Pending_hits = 12, Reservation_fails = 0
	L1D_cache_core[4]: Access = 16, Miss = 4, Miss_rate = 0.250, Pending_hits = 12, Reservation_fails = 0
	L1D_cache_core[5]: Access = 16, Miss = 4, Miss_rate = 0.250, Pending_hits = 12, Reservation_fails = 0
	L1D_cache_core[6]: Access = 16, Miss = 4, Miss_rate = 0.250, Pending_hits = 12, Reservation_fails = 0
	L1D_cache_core[7]: Access = 16, Miss = 4, Miss_rate = 0.250, Pending_hits = 12, Reservation_fails = 0
	L1D_cache_core[8]: Access = 16, Miss = 4, Miss_rate = 0.250, Pending_hits = 12, Reservation_fails = 0
	L1D_cache_core[9]: Access = 20, Miss = 7, Miss_rate = 0.350, Pending_hits = 12, Reservation_fails = 0
	L1D_cache_core[10]: Access = 20, Miss = 7, Miss_rate = 0.350, Pending_hits = 12, Reservation_fails = 0
	L1D_cache_core[11]: Access = 24, Miss = 10, Miss_rate = 0.417, Pending_hits = 12, Reservation_fails = 0
	L1D_cache_core[12]: Access = 20, Miss = 7, Miss_rate = 0.350, Pending_hits = 12, Reservation_fails = 0
	L1D_cache_core[13]: Access = 28, Miss = 13, Miss_rate = 0.464, Pending_hits = 12, Reservation_fails = 0
	L1D_cache_core[14]: Access = 16, Miss = 4, Miss_rate = 0.250, Pending_hits = 12, Reservation_fails = 0
	L1D_total_cache_accesses = 369
	L1D_total_cache_misses = 125
	L1D_total_cache_miss_rate = 0.3388
	L1D_total_cache_pending_hits = 192
	L1D_total_cache_reservation_fails = 0
	L1D_cache_data_port_util = 0.002
	L1D_cache_fill_port_util = 0.003
L1C_cache:
	L1C_total_cache_accesses = 575
	L1C_total_cache_misses = 240
	L1C_total_cache_miss_rate = 0.4174
	L1C_total_cache_pending_hits = 0
	L1C_total_cache_reservation_fails = 0
L1T_cache:
	L1T_total_cache_accesses = 0
	L1T_total_cache_misses = 0
	L1T_total_cache_pending_hits = 0
	L1T_total_cache_reservation_fails = 0

Total_core_cache_stats:
	Total_core_cache_stats_breakdown[GLOBAL_ACC_R][HIT] = 39
	Total_core_cache_stats_breakdown[GLOBAL_ACC_R][HIT_RESERVED] = 192
	Total_core_cache_stats_breakdown[GLOBAL_ACC_R][MISS] = 77
	Total_core_cache_stats_breakdown[CONST_ACC_R][HIT] = 335
	Total_core_cache_stats_breakdown[CONST_ACC_R][MISS] = 240
	Total_core_cache_stats_breakdown[GLOBAL_ACC_W][HIT] = 13
	Total_core_cache_stats_breakdown[GLOBAL_ACC_W][MISS] = 48
	Total_core_cache_stats_breakdown[INST_ACC_R][HIT] = 2500
	Total_core_cache_stats_breakdown[INST_ACC_R][MISS] = 617
Shader 0 warp_id issue ditsribution:
warp_id:
0, 1, 2, 3, 4, 5, 6, 7, 8, 9, 10, 11, 12, 13, 14, 15, 
distro:
15, 15, 15, 15, 15, 15, 15, 15, 15, 15, 15, 15, 15, 15, 15, 15, 
gpgpu_n_tot_thrd_icount = 136192
gpgpu_n_tot_w_icount = 4256
gpgpu_n_stall_shd_mem = 0
gpgpu_n_mem_read_local = 0
gpgpu_n_mem_write_local = 0
gpgpu_n_mem_read_global = 77
gpgpu_n_mem_write_global = 61
gpgpu_n_mem_texture = 0
gpgpu_n_mem_const = 15
gpgpu_n_load_insn  = 8244
gpgpu_n_store_insn = 61
gpgpu_n_shmem_insn = 0
gpgpu_n_tex_insn = 0
gpgpu_n_const_mem_insn = 0
gpgpu_n_param_mem_insn = 16447
gpgpu_n_shmem_bkconflict = 0
gpgpu_n_cache_bkconflict = 0
gpgpu_n_intrawarp_mshr_merge = 0
gpgpu_n_cmem_portconflict = 0
gpgpu_stall_shd_mem[c_mem][bk_conf] = 0
gpgpu_stall_shd_mem[c_mem][mshr_rc] = 0
gpgpu_stall_shd_mem[c_mem][icnt_rc] = 0
gpgpu_stall_shd_mem[c_mem][data_port_stall] = 0
gpgpu_stall_shd_mem[t_mem][mshr_rc] = 0
gpgpu_stall_shd_mem[t_mem][icnt_rc] = 0
gpgpu_stall_shd_mem[t_mem][data_port_stall] = 0
gpgpu_stall_shd_mem[s_mem][bk_conf] = 0
gpgpu_stall_shd_mem[gl_mem][bk_conf] = 0
gpgpu_stall_shd_mem[gl_mem][coal_stall] = 0
gpgpu_stall_shd_mem[gl_mem][data_port_stall] = 0
gpgpu_stall_shd_mem[g_mem_ld][mshr_rc] = 0
gpgpu_stall_shd_mem[g_mem_ld][icnt_rc] = 0
gpgpu_stall_shd_mem[g_mem_ld][wb_icnt_rc] = 0
gpgpu_stall_shd_mem[g_mem_ld][wb_rsrv_fail] = 0
gpgpu_stall_shd_mem[g_mem_st][mshr_rc] = 0
gpgpu_stall_shd_mem[g_mem_st][icnt_rc] = 0
gpgpu_stall_shd_mem[g_mem_st][wb_icnt_rc] = 0
gpgpu_stall_shd_mem[g_mem_st][wb_rsrv_fail] = 0
gpgpu_stall_shd_mem[l_mem_ld][mshr_rc] = 0
gpgpu_stall_shd_mem[l_mem_ld][icnt_rc] = 0
gpgpu_stall_shd_mem[l_mem_ld][wb_icnt_rc] = 0
gpgpu_stall_shd_mem[l_mem_ld][wb_rsrv_fail] = 0
gpgpu_stall_shd_mem[l_mem_st][mshr_rc] = 0
gpgpu_stall_shd_mem[l_mem_st][icnt_rc] = 0
gpgpu_stall_shd_mem[l_mem_ld][wb_icnt_rc] = 0
gpgpu_stall_shd_mem[l_mem_ld][wb_rsrv_fail] = 0
gpu_reg_bank_conflict_stalls = 0
Warp Occupancy Distribution:
Stall:82	W0_Idle:23004	W0_Scoreboard:18974	W1:416	W2:0	W3:0	W4:0	W5:0	W6:0	W7:0	W8:0	W9:0	W10:0	W11:0	W12:0	W13:0	W14:0	W15:0	W16:0	W17:0	W18:0	W19:0	W20:0	W21:0	W22:0	W23:0	W24:0	W25:0	W26:0	W27:0	W28:0	W29:0	W30:0	W31:0	W32:3840
traffic_breakdown_coretomem[CONST_ACC_R] = 120 {8:15,}
traffic_breakdown_coretomem[GLOBAL_ACC_R] = 616 {8:77,}
traffic_breakdown_coretomem[GLOBAL_ACC_W] = 2440 {40:61,}
traffic_breakdown_coretomem[INST_ACC_R] = 328 {8:41,}
traffic_breakdown_memtocore[CONST_ACC_R] = 1080 {72:15,}
traffic_breakdown_memtocore[GLOBAL_ACC_R] = 10472 {136:77,}
traffic_breakdown_memtocore[GLOBAL_ACC_W] = 488 {8:61,}
traffic_breakdown_memtocore[INST_ACC_R] = 5576 {136:41,}
maxmrqlatency = 11 
maxdqlatency = 0 
maxmflatency = 278 
averagemflatency = 220 
max_icnt2mem_latency = 22 
max_icnt2sh_latency = 7530 
mrq_lat_table:105 	4 	3 	7 	0 	0 	0 	0 	0 	0 	0 	0 	0 	0 	0 	0 	0 	0 	0 	0 	0 	0 	0 	0 	0 	0 	0 	0 	0 	0 	0 	0 	
dq_lat_table:0 	0 	0 	0 	0 	0 	0 	0 	0 	0 	0 	0 	0 	0 	0 	0 	0 	0 	0 	0 	0 	0 	0 	0 	0 	0 	0 	0 	0 	0 	0 	0 	
mf_lat_table:0 	0 	0 	0 	0 	0 	0 	78 	75 	0 	0 	0 	0 	0 	0 	0 	0 	0 	0 	0 	0 	0 	0 	0 	0 	0 	0 	0 	0 	0 	0 	0 	
icnt2mem_lat_table:0 	0 	0 	187 	7 	0 	0 	0 	0 	0 	0 	0 	0 	0 	0 	0 	0 	0 	0 	0 	0 	0 	0 	0 	
icnt2sh_lat_table:0 	0 	0 	83 	9 	0 	0 	0 	0 	0 	1 	7 	53 	0 	0 	0 	0 	0 	0 	0 	0 	0 	0 	0 	
mf_lat_pw_table:0 	0 	0 	0 	0 	0 	0 	11 	3 	0 	0 	0 	0 	0 	0 	0 	0 	0 	0 	0 	0 	0 	0 	0 	0 	0 	0 	0 	0 	0 	0 	0 	
maximum concurrent accesses to same row:
dram[0]:         1         0         0         0         0         0         0         0         0         0         0         0         0         0         0         0 
dram[1]:         0         0         0         0         0         0         0         0         0         0         0         0         0         0         0         0 
dram[2]:         0         0         0         0         0         0         0         0         0         0         0         0         0         0         0         0 
dram[3]:         0         0         0         0         0         0         0         0         0         0         0         0         0         0         0         0 
dram[4]:         0         0         0         0         0         0         0         0         0         0         0         0         0         0         0         0 
dram[5]:         0         0         0         0         0         0         0         0         0         0         0         0         0         0         0         0 
maximum service time to same row:
dram[0]:       609         0         0         0         0         0         0         0         0         0       850       862         0         0         0         0 
dram[1]:      1125         0         0         0         0         0         0         0         0         0       871       882         0         0         0         0 
dram[2]:       272         0         0         0         0      1454         0         0         0         0       857       866         0         0         0         0 
dram[3]:         0         0         0         0         0         0         0         0         0         0       879       887         0         0         0         0 
dram[4]:         0         0         0         0         0         0      1776         0         0         0       854       846         0         0         0         0 
dram[5]:         0         0         0         0         0         0         0         0         0         0       875       866         0         0         0         0 
average row accesses per activate:
dram[0]:  1.000000      -nan      -nan      -nan      -nan      -nan      -nan      -nan      -nan      -nan  6.000000  9.000000      -nan      -nan      -nan      -nan 
dram[1]:  2.000000      -nan      -nan      -nan      -nan      -nan      -nan      -nan      -nan      -nan 11.000000 10.000000      -nan      -nan      -nan      -nan 
dram[2]:  2.000000      -nan      -nan      -nan      -nan  1.000000      -nan      -nan      -nan      -nan  7.000000 13.000000      -nan      -nan      -nan      -nan 
dram[3]:      -nan      -nan      -nan      -nan      -nan      -nan      -nan      -nan      -nan      -nan  7.000000  8.000000      -nan      -nan      -nan      -nan 
dram[4]:      -nan      -nan      -nan      -nan      -nan      -nan  1.000000      -nan      -nan      -nan  9.000000 10.000000      -nan      -nan      -nan      -nan 
dram[5]:      -nan      -nan      -nan      -nan      -nan      -nan      -nan      -nan      -nan      -nan 13.000000  7.000000      -nan      -nan      -nan      -nan 
average row locality = 119/19 = 6.263158
number of total memory accesses made:
dram[0]:         0         0         0         0         0         0         0         0         0         0         0         0         0         0         0         0 
dram[1]:         0         0         0         0         0         0         0         0         0         0         0         0         0         0         0         0 
dram[2]:         0         0         0         0         0         0         0         0         0         0         0         0         0         0         0         0 
dram[3]:         0         0         0         0         0         0         0         0         0         0         0         0         0         0         0         0 
dram[4]:         0         0         0         0         0         0         0         0         0         0         0         0         0         0         0         0 
dram[5]:         0         0         0         0         0         0         0         0         0         0         0         0         0         0         0         0 
total accesses: 0
min_bank_accesses = 0!
min_chip_accesses = 0!
number of total read accesses:
dram[0]:         3         0         0         0         0         0         0         0         0         0         5         8         0         0         0         0 
dram[1]:         2         0         0         0         0         0         0         0         0         0         7         8         0         0         0         0 
dram[2]:         2         0         0         0         0         1         0         0         0         0         6         8         0         0         0         0 
dram[3]:         0         0         0         0         0         0         0         0         0         0         6         8         0         0         0         0 
dram[4]:         0         0         0         0         0         0         1         0         0         0         8         7         0         0         0         0 
dram[5]:         0         0         0         0         0         0         0         0         0         0         9         6         0         0         0         0 
total reads: 95
min_bank_accesses = 0!
chip skew: 17/14 = 1.21
number of total write accesses:
dram[0]:         0         0         0         0         0         0         0         0         0         0         1         1         0         0         0         0 
dram[1]:         0         0         0         0         0         0         0         0         0         0         4         2         0         0         0         0 
dram[2]:         0         0         0         0         0         0         0         0         0         0         1         5         0         0         0         0 
dram[3]:         0         0         0         0         0         0         0         0         0         0         1         0         0         0         0         0 
dram[4]:         0         0         0         0         0         0         0         0         0         0         1         3         0         0         0         0 
dram[5]:         0         0         0         0         0         0         0         0         0         0         4         1         0         0         0         0 
total reads: 24
min_bank_accesses = 0!
chip skew: 6/1 = 6.00
average mf latency per bank:
dram[0]:       1041    none      none      none      none      none      none      none      none      none         311       280    none      none      none      none  
dram[1]:          0    none      none      none      none      none      none      none      none      none         212       221    none      none      none      none  
dram[2]:          0    none      none      none      none         268    none      none      none      none         303       354    none      none      none      none  
dram[3]:     none      none      none      none      none      none      none      none      none      none         241       314    none      none      none      none  
dram[4]:     none      none      none      none      none      none         267    none      none      none         311       250    none      none      none      none  
dram[5]:     none      none      none      none      none      none      none      none      none      none         231       264    none      none      none      none  
maximum mf latency per bank:
dram[0]:        278         0         0         0         0         0         0         0         0         0       271       271         0         0         0         0
dram[1]:          0         0         0         0         0         0         0         0         0         0       268       271         0         0         0         0
dram[2]:          0         0         0         0         0       268         0         0         0         0       271       272         0         0         0         0
dram[3]:          0         0         0         0         0         0         0         0         0         0       268       273         0         0         0         0
dram[4]:          0         0         0         0         0         0       267         0         0         0       272       271         0         0         0         0
dram[5]:          0         0         0         0         0         0         0         0         0         0       268       271         0         0         0         0
Memory Partition 0: 
Cache L2_bank_000:
MSHR contents

Cache L2_bank_001:
MSHR contents

In Dram Latency Queue (total = 0): 
DRAM[0]: 16 bks, busW=4 BL=8 CL=12, tRRD=2 tCCD=6, tRCD=12 tRAS=28 tRP=12 tRC=40
n_cmd=9939 n_nop=9898 n_act=5 n_pre=2 n_req=18 n_rd=32 n_write=2 bw_util=0.006842
n_activity=323 dram_eff=0.2105
bk0: 6a 9866i bk1: 0a 9937i bk2: 0a 9939i bk3: 0a 9939i bk4: 0a 9940i bk5: 0a 9940i bk6: 0a 9940i bk7: 0a 9940i bk8: 0a 9940i bk9: 0a 9940i bk10: 10a 9895i bk11: 16a 9875i bk12: 0a 9938i bk13: 0a 9938i bk14: 0a 9938i bk15: 0a 9938i 
dram_util_bins: 0 0 0 0 0 0 0 0 0 0
dram_eff_bins: 0 0 0 0 0 0 0 0 0 0
mrqq: max=2 avg=0.00402455
Memory Partition 1: 
Cache L2_bank_002:
MSHR contents

Cache L2_bank_003:
MSHR contents

In Dram Latency Queue (total = 0): 
DRAM[1]: 16 bks, busW=4 BL=8 CL=12, tRRD=2 tCCD=6, tRCD=12 tRAS=28 tRP=12 tRC=40
n_cmd=9939 n_nop=9896 n_act=3 n_pre=0 n_req=23 n_rd=34 n_write=6 bw_util=0.008049
n_activity=327 dram_eff=0.2446
bk0: 4a 9918i bk1: 0a 9939i bk2: 0a 9939i bk3: 0a 9939i bk4: 0a 9939i bk5: 0a 9940i bk6: 0a 9940i bk7: 0a 9940i bk8: 0a 9940i bk9: 0a 9940i bk10: 14a 9855i bk11: 16a 9866i bk12: 0a 9938i bk13: 0a 9938i bk14: 0a 9938i bk15: 0a 9938i 
dram_util_bins: 0 0 0 0 0 0 0 0 0 0
dram_eff_bins: 0 0 0 0 0 0 0 0 0 0
mrqq: max=1 avg=0.000503069
Memory Partition 2: 
Cache L2_bank_004:
MSHR contents

Cache L2_bank_005:
MSHR contents

In Dram Latency Queue (total = 0): 
DRAM[2]: 16 bks, busW=4 BL=8 CL=12, tRRD=2 tCCD=6, tRCD=12 tRAS=28 tRP=12 tRC=40
n_cmd=9939 n_nop=9895 n_act=4 n_pre=0 n_req=23 n_rd=34 n_write=6 bw_util=0.008049
n_activity=342 dram_eff=0.2339
bk0: 4a 9917i bk1: 0a 9939i bk2: 0a 9939i bk3: 0a 9939i bk4: 0a 9940i bk5: 2a 9924i bk6: 0a 9939i bk7: 0a 9939i bk8: 0a 9939i bk9: 0a 9939i bk10: 12a 9890i bk11: 16a 9852i bk12: 0a 9937i bk13: 0a 9938i bk14: 0a 9939i bk15: 0a 9940i 
dram_util_bins: 0 0 0 0 0 0 0 0 0 0
dram_eff_bins: 0 0 0 0 0 0 0 0 0 0
mrqq: max=2 avg=0.00342087
Memory Partition 3: 
Cache L2_bank_006:
MSHR contents

Cache L2_bank_007:
MSHR contents

In Dram Latency Queue (total = 0): 
DRAM[3]: 16 bks, busW=4 BL=8 CL=12, tRRD=2 tCCD=6, tRCD=12 tRAS=28 tRP=12 tRC=40
n_cmd=9939 n_nop=9908 n_act=2 n_pre=0 n_req=15 n_rd=28 n_write=1 bw_util=0.005836
n_activity=194 dram_eff=0.299
bk0: 0a 9938i bk1: 0a 9939i bk2: 0a 9939i bk3: 0a 9939i bk4: 0a 9939i bk5: 0a 9940i bk6: 0a 9940i bk7: 0a 9940i bk8: 0a 9940i bk9: 0a 9940i bk10: 12a 9890i bk11: 16a 9885i bk12: 0a 9938i bk13: 0a 9938i bk14: 0a 9938i bk15: 0a 9938i 
dram_util_bins: 0 0 0 0 0 0 0 0 0 0
dram_eff_bins: 0 0 0 0 0 0 0 0 0 0
mrqq: max=0 avg=0
Memory Partition 4: 
Cache L2_bank_008:
MSHR contents

Cache L2_bank_009:
MSHR contents

In Dram Latency Queue (total = 0): 
DRAM[4]: 16 bks, busW=4 BL=8 CL=12, tRRD=2 tCCD=6, tRCD=12 tRAS=28 tRP=12 tRC=40
n_cmd=9939 n_nop=9900 n_act=3 n_pre=0 n_req=20 n_rd=32 n_write=4 bw_util=0.007244
n_activity=276 dram_eff=0.2609
bk0: 0a 9939i bk1: 0a 9940i bk2: 0a 9940i bk3: 0a 9940i bk4: 0a 9940i bk5: 0a 9940i bk6: 2a 9923i bk7: 0a 9939i bk8: 0a 9939i bk9: 0a 9940i bk10: 16a 9876i bk11: 14a 9863i bk12: 0a 9936i bk13: 0a 9937i bk14: 0a 9938i bk15: 0a 9938i 
dram_util_bins: 0 0 0 0 0 0 0 0 0 0
dram_eff_bins: 0 0 0 0 0 0 0 0 0 0
mrqq: max=2 avg=0.00342087
Memory Partition 5: 
Cache L2_bank_010:
MSHR contents

Cache L2_bank_011:
MSHR contents

In Dram Latency Queue (total = 0): 
DRAM[5]: 16 bks, busW=4 BL=8 CL=12, tRRD=2 tCCD=6, tRCD=12 tRAS=28 tRP=12 tRC=40
n_cmd=9939 n_nop=9902 n_act=2 n_pre=0 n_req=20 n_rd=30 n_write=5 bw_util=0.007043
n_activity=261 dram_eff=0.2682
bk0: 0a 9938i bk1: 0a 9939i bk2: 0a 9939i bk3: 0a 9939i bk4: 0a 9939i bk5: 0a 9939i bk6: 0a 9939i bk7: 0a 9940i bk8: 0a 9940i bk9: 0a 9941i bk10: 18a 9845i bk11: 12a 9873i bk12: 0a 9937i bk13: 0a 9938i bk14: 0a 9938i bk15: 0a 9938i 
dram_util_bins: 0 0 0 0 0 0 0 0 0 0
dram_eff_bins: 0 0 0 0 0 0 0 0 0 0
mrqq: max=1 avg=0.000603682

========= L2 cache stats =========
L2_cache_bank[0]: Access = 33, Miss = 8, Miss_rate = 0.242, Pending_hits = 6, Reservation_fails = 225
L2_cache_bank[1]: Access = 11, Miss = 8, Miss_rate = 0.727, Pending_hits = 0, Reservation_fails = 0
L2_cache_bank[2]: Access = 27, Miss = 9, Miss_rate = 0.333, Pending_hits = 3, Reservation_fails = 108
L2_cache_bank[3]: Access = 9, Miss = 8, Miss_rate = 0.889, Pending_hits = 0, Reservation_fails = 0
L2_cache_bank[4]: Access = 26, Miss = 8, Miss_rate = 0.308, Pending_hits = 0, Reservation_fails = 0
L2_cache_bank[5]: Access = 22, Miss = 9, Miss_rate = 0.409, Pending_hits = 3, Reservation_fails = 67
L2_cache_bank[6]: Access = 7, Miss = 6, Miss_rate = 0.857, Pending_hits = 0, Reservation_fails = 0
L2_cache_bank[7]: Access = 11, Miss = 8, Miss_rate = 0.727, Pending_hits = 0, Reservation_fails = 0
L2_cache_bank[8]: Access = 14, Miss = 9, Miss_rate = 0.643, Pending_hits = 0, Reservation_fails = 0
L2_cache_bank[9]: Access = 12, Miss = 7, Miss_rate = 0.583, Pending_hits = 0, Reservation_fails = 0
L2_cache_bank[10]: Access = 14, Miss = 9, Miss_rate = 0.643, Pending_hits = 0, Reservation_fails = 0
L2_cache_bank[11]: Access = 8, Miss = 6, Miss_rate = 0.750, Pending_hits = 0, Reservation_fails = 0
L2_total_cache_accesses = 194
L2_total_cache_misses = 95
L2_total_cache_miss_rate = 0.4897
L2_total_cache_pending_hits = 12
L2_total_cache_reservation_fails = 400
L2_total_cache_breakdown:
	L2_cache_stats_breakdown[GLOBAL_ACC_R][HIT] = 10
	L2_cache_stats_breakdown[GLOBAL_ACC_R][MISS] = 67
	L2_cache_stats_breakdown[CONST_ACC_R][HIT] = 11
	L2_cache_stats_breakdown[CONST_ACC_R][HIT_RESERVED] = 3
	L2_cache_stats_breakdown[CONST_ACC_R][MISS] = 1
	L2_cache_stats_breakdown[CONST_ACC_R][RESERVATION_FAIL] = 109
	L2_cache_stats_breakdown[GLOBAL_ACC_W][HIT] = 37
	L2_cache_stats_breakdown[GLOBAL_ACC_W][HIT_RESERVED] = 3
	L2_cache_stats_breakdown[GLOBAL_ACC_W][MISS] = 21
	L2_cache_stats_breakdown[GLOBAL_ACC_W][RESERVATION_FAIL] = 67
	L2_cache_stats_breakdown[INST_ACC_R][HIT] = 29
	L2_cache_stats_breakdown[INST_ACC_R][HIT_RESERVED] = 6
	L2_cache_stats_breakdown[INST_ACC_R][MISS] = 6
	L2_cache_stats_breakdown[INST_ACC_R][RESERVATION_FAIL] = 224
L2_cache_data_port_util = 0.002
L2_cache_fill_port_util = 0.004

icnt_total_pkts_mem_to_simt=696
icnt_total_pkts_simt_to_mem=255
LD_mem_lat_dist  0 0 0 0 0 0 0 0 0 0 0 0 0 0 0 0 0 0 0 0 0 0 0 0 0 0 0
ST_mem_lat_dist  0 0 0 0 0 0 0 0 0 0 0 0 0 0 0 0 0 0 0 0 0 0 0 0 0 0 0
----------------------------Interconnect-DETAILS--------------------------------
Class 0:
Packet latency average = 8.0098
	minimum = 6
	maximum = 20
Network latency average = 7.90196
	minimum = 6
	maximum = 18
Slowest packet = 184
Flit latency average = 6.54812
	minimum = 6
	maximum = 18
Slowest flit = 473
Fragmentation average = 0
	minimum = 0
	maximum = 0
Injected packet rate average = 0.00703497
	minimum = 0 (at node 2)
	maximum = 0.0195531 (at node 19)
Accepted packet rate average = 0.00703497
	minimum = 0 (at node 2)
	maximum = 0.0195531 (at node 19)
Injected flit rate average = 0.0164839
	minimum = 0 (at node 2)
	maximum = 0.0865922 (at node 19)
Accepted flit rate average= 0.0164839
	minimum = 0 (at node 2)
	maximum = 0.0465549 (at node 13)
Injected packet length average = 2.34314
Accepted packet length average = 2.34314
Total in-flight flits = 0 (0 measured)
====== Overall Traffic Statistics ======
====== Traffic class 0 ======
Packet latency average = 8.50218 (2 samples)
	minimum = 6 (2 samples)
	maximum = 20.5 (2 samples)
Network latency average = 8.16022 (2 samples)
	minimum = 6 (2 samples)
	maximum = 19 (2 samples)
Flit latency average = 6.78146 (2 samples)
	minimum = 6 (2 samples)
	maximum = 19 (2 samples)
Fragmentation average = 0 (2 samples)
	minimum = 0 (2 samples)
	maximum = 0 (2 samples)
Injected packet rate average = 0.00404519 (2 samples)
	minimum = 0 (2 samples)
	maximum = 0.0131063 (2 samples)
Accepted packet rate average = 0.00404519 (2 samples)
	minimum = 0 (2 samples)
	maximum = 0.0131063 (2 samples)
Injected flit rate average = 0.0095985 (2 samples)
	minimum = 0 (2 samples)
	maximum = 0.0498781 (2 samples)
Accepted flit rate average = 0.0095985 (2 samples)
	minimum = 0 (2 samples)
	maximum = 0.0332666 (2 samples)
Injected packet size average = 2.37282 (2 samples)
Accepted packet size average = 2.37282 (2 samples)
Hops average = 1 (2 samples)
----------------------------END-of-Interconnect-DETAILS-------------------------


gpgpu_simulation_time = 0 days, 0 hrs, 0 min, 2 sec (2 sec)
gpgpu_simulation_rate = 57540 (inst/sec)
gpgpu_simulation_rate = 3765 (cycle/sec)

GPGPU-Sim PTX: cudaLaunch for 0x0x40149f (mode=performance simulation) on stream 0
GPGPU-Sim PTX: pushing kernel '_Z6KernelP4NodePiPbS2_S2_S1_i' to stream 0, gridDim= (8,1,1) blockDim = (512,1,1) 
kernel '_Z6KernelP4NodePiPbS2_S2_S1_i' transfer to GPU hardware scheduler
GPGPU-Sim uArch: Shader 2 bind to kernel 3 '_Z6KernelP4NodePiPbS2_S2_S1_i'
GPGPU-Sim uArch: CTA/core = 3, limited by: threads
GPGPU-Sim uArch: core:  2, cta: 0 initialized @(1,7531)
GPGPU-Sim uArch: Shader 3 bind to kernel 3 '_Z6KernelP4NodePiPbS2_S2_S1_i'
GPGPU-Sim uArch: core:  3, cta: 0 initialized @(1,7531)
GPGPU-Sim uArch: Shader 4 bind to kernel 3 '_Z6KernelP4NodePiPbS2_S2_S1_i'
GPGPU-Sim uArch: core:  4, cta: 0 initialized @(1,7531)
GPGPU-Sim uArch: Shader 5 bind to kernel 3 '_Z6KernelP4NodePiPbS2_S2_S1_i'
GPGPU-Sim uArch: core:  5, cta: 0 initialized @(1,7531)
GPGPU-Sim uArch: Shader 6 bind to kernel 3 '_Z6KernelP4NodePiPbS2_S2_S1_i'
GPGPU-Sim uArch: core:  6, cta: 0 initialized @(1,7531)
GPGPU-Sim uArch: Shader 7 bind to kernel 3 '_Z6KernelP4NodePiPbS2_S2_S1_i'
GPGPU-Sim uArch: core:  7, cta: 0 initialized @(1,7531)
GPGPU-Sim uArch: Shader 8 bind to kernel 3 '_Z6KernelP4NodePiPbS2_S2_S1_i'
GPGPU-Sim uArch: core:  8, cta: 0 initialized @(1,7531)
GPGPU-Sim uArch: Shader 9 bind to kernel 3 '_Z6KernelP4NodePiPbS2_S2_S1_i'
GPGPU-Sim uArch: core:  9, cta: 0 initialized @(1,7531)
GPGPU-Sim uArch: Shader 7 finished CTA #0 (274,7531), 0 CTAs running
GPGPU-Sim uArch: Shader 7 empty (release kernel 3 '_Z6KernelP4NodePiPbS2_S2_S1_i').
GPGPU-Sim uArch: Shader 8 finished CTA #0 (285,7531), 0 CTAs running
GPGPU-Sim uArch: Shader 8 empty (release kernel 3 '_Z6KernelP4NodePiPbS2_S2_S1_i').
GPGPU-Sim uArch: cycles simulated: 8531  inst.: 172247 (ipc=57.2) sim_rate=57415 (inst/sec) elapsed = 0:0:00:03 / Thu May 30 06:13:03 2019
GPGPU-Sim uArch: Shader 4 finished CTA #0 (3094,7531), 0 CTAs running
GPGPU-Sim uArch: Shader 4 empty (release kernel 3 '_Z6KernelP4NodePiPbS2_S2_S1_i').
GPGPU-Sim uArch: Shader 6 finished CTA #0 (3534,7531), 0 CTAs running
GPGPU-Sim uArch: Shader 6 empty (release kernel 3 '_Z6KernelP4NodePiPbS2_S2_S1_i').
GPGPU-Sim uArch: Shader 2 finished CTA #0 (3625,7531), 0 CTAs running
GPGPU-Sim uArch: Shader 2 empty (release kernel 3 '_Z6KernelP4NodePiPbS2_S2_S1_i').
GPGPU-Sim uArch: Shader 9 finished CTA #0 (3936,7531), 0 CTAs running
GPGPU-Sim uArch: Shader 9 empty (release kernel 3 '_Z6KernelP4NodePiPbS2_S2_S1_i').
GPGPU-Sim uArch: Shader 5 finished CTA #0 (4259,7531), 0 CTAs running
GPGPU-Sim uArch: Shader 5 empty (release kernel 3 '_Z6KernelP4NodePiPbS2_S2_S1_i').
GPGPU-Sim uArch: Shader 3 finished CTA #0 (4437,7531), 0 CTAs running
GPGPU-Sim uArch: Shader 3 empty (release kernel 3 '_Z6KernelP4NodePiPbS2_S2_S1_i').
GPGPU-Sim uArch: GPU detected kernel '_Z6KernelP4NodePiPbS2_S2_S1_i' finished on shader 3.
kernel_name = _Z6KernelP4NodePiPbS2_S2_S1_i 
kernel_launch_uid = 3 
gpu_sim_cycle = 4438
gpu_sim_insn = 59154
gpu_ipc =      13.3290
gpu_tot_sim_cycle = 11969
gpu_tot_sim_insn = 174235
gpu_tot_ipc =      14.5572
gpu_tot_issued_cta = 0
gpu_stall_dramfull = 0
gpu_stall_icnt2sh    = 61
gpu_total_sim_rate=58078

========= Core cache stats =========
L1I_cache:
	L1I_total_cache_accesses = 5285
	L1I_total_cache_misses = 653
	L1I_total_cache_miss_rate = 0.1236
	L1I_total_cache_pending_hits = 0
	L1I_total_cache_reservation_fails = 0
L1D_cache:
	L1D_cache_core[0]: Access = 16, Miss = 4, Miss_rate = 0.250, Pending_hits = 12, Reservation_fails = 0
	L1D_cache_core[1]: Access = 113, Miss = 45, Miss_rate = 0.398, Pending_hits = 24, Reservation_fails = 0
	L1D_cache_core[2]: Access = 86, Miss = 32, Miss_rate = 0.372, Pending_hits = 24, Reservation_fails = 0
	L1D_cache_core[3]: Access = 107, Miss = 41, Miss_rate = 0.383, Pending_hits = 24, Reservation_fails = 0
	L1D_cache_core[4]: Access = 105, Miss = 42, Miss_rate = 0.400, Pending_hits = 25, Reservation_fails = 0
	L1D_cache_core[5]: Access = 93, Miss = 36, Miss_rate = 0.387, Pending_hits = 24, Reservation_fails = 0
	L1D_cache_core[6]: Access = 145, Miss = 59, Miss_rate = 0.407, Pending_hits = 24, Reservation_fails = 0
	L1D_cache_core[7]: Access = 32, Miss = 8, Miss_rate = 0.250, Pending_hits = 24, Reservation_fails = 0
	L1D_cache_core[8]: Access = 32, Miss = 8, Miss_rate = 0.250, Pending_hits = 24, Reservation_fails = 0
	L1D_cache_core[9]: Access = 130, Miss = 52, Miss_rate = 0.400, Pending_hits = 24, Reservation_fails = 0
	L1D_cache_core[10]: Access = 20, Miss = 7, Miss_rate = 0.350, Pending_hits = 12, Reservation_fails = 0
	L1D_cache_core[11]: Access = 24, Miss = 10, Miss_rate = 0.417, Pending_hits = 12, Reservation_fails = 0
	L1D_cache_core[12]: Access = 20, Miss = 7, Miss_rate = 0.350, Pending_hits = 12, Reservation_fails = 0
	L1D_cache_core[13]: Access = 28, Miss = 13, Miss_rate = 0.464, Pending_hits = 12, Reservation_fails = 0
	L1D_cache_core[14]: Access = 16, Miss = 4, Miss_rate = 0.250, Pending_hits = 12, Reservation_fails = 0
	L1D_total_cache_accesses = 967
	L1D_total_cache_misses = 368
	L1D_total_cache_miss_rate = 0.3806
	L1D_total_cache_pending_hits = 289
	L1D_total_cache_reservation_fails = 0
	L1D_cache_data_port_util = 0.007
	L1D_cache_fill_port_util = 0.004
L1C_cache:
	L1C_total_cache_accesses = 1051
	L1C_total_cache_misses = 240
	L1C_total_cache_miss_rate = 0.2284
	L1C_total_cache_pending_hits = 0
	L1C_total_cache_reservation_fails = 0
L1T_cache:
	L1T_total_cache_accesses = 0
	L1T_total_cache_misses = 0
	L1T_total_cache_pending_hits = 0
	L1T_total_cache_reservation_fails = 0

Total_core_cache_stats:
	Total_core_cache_stats_breakdown[GLOBAL_ACC_R][HIT] = 287
	Total_core_cache_stats_breakdown[GLOBAL_ACC_R][HIT_RESERVED] = 289
	Total_core_cache_stats_breakdown[GLOBAL_ACC_R][MISS] = 200
	Total_core_cache_stats_breakdown[CONST_ACC_R][HIT] = 811
	Total_core_cache_stats_breakdown[CONST_ACC_R][MISS] = 240
	Total_core_cache_stats_breakdown[GLOBAL_ACC_W][HIT] = 23
	Total_core_cache_stats_breakdown[GLOBAL_ACC_W][MISS] = 168
	Total_core_cache_stats_breakdown[INST_ACC_R][HIT] = 4632
	Total_core_cache_stats_breakdown[INST_ACC_R][MISS] = 653
Shader 0 warp_id issue ditsribution:
warp_id:
0, 1, 2, 3, 4, 5, 6, 7, 8, 9, 10, 11, 12, 13, 14, 15, 
distro:
15, 15, 15, 15, 15, 15, 15, 15, 15, 15, 15, 15, 15, 15, 15, 15, 
gpgpu_n_tot_thrd_icount = 258432
[...]
gpgpu_stall_shd_mem[gl_mem][data_port_stall] = 0
gpgpu_stall_shd_mem[g_mem_ld][mshr_rc] = 0
gpgpu_stall_shd_mem[g_mem_ld][icnt_rc] = 0
gpgpu_stall_shd_mem[g_mem_ld][wb_icnt_rc] = 0
gpgpu_stall_shd_mem[g_mem_ld][wb_rsrv_fail] = 0
gpgpu_stall_shd_mem[g_mem_st][mshr_rc] = 0
gpgpu_stall_shd_mem[g_mem_st][icnt_rc] = 0
gpgpu_stall_shd_mem[g_mem_st][wb_icnt_rc] = 0
gpgpu_stall_shd_mem[g_mem_st][wb_rsrv_fail] = 0
gpgpu_stall_shd_mem[l_mem_ld][mshr_rc] = 0
gpgpu_stall_shd_mem[l_mem_ld][icnt_rc] = 0
gpgpu_stall_shd_mem[l_mem_ld][wb_icnt_rc] = 0
gpgpu_stall_shd_mem[l_mem_ld][wb_rsrv_fail] = 0
gpgpu_stall_shd_mem[l_mem_st][mshr_rc] = 0
gpgpu_stall_shd_mem[l_mem_st][icnt_rc] = 0
gpgpu_stall_shd_mem[l_mem_ld][wb_icnt_rc] = 0
gpgpu_stall_shd_mem[l_mem_ld][wb_rsrv_fail] = 0
gpu_reg_bank_conflict_stalls = 0
Warp Occupancy Distribution:
Stall:81208	W0_Idle:95509	W0_Scoreboard:289105	W1:41841	W2:19439	W3:12846	W4:8175	W5:5613	W6:3854	W7:3072	W8:2450	W9:2648	W10:2396	W11:2434	W12:3149	W13:2365	W14:2447	W15:1624	W16:1420	W17:1630	W18:833	W19:414	W20:224	W21:130	W22:118	W23:0	W24:0	W25:0	W26:0	W27:0	W28:0	W29:0	W30:0	W31:0	W32:30720
traffic_breakdown_coretomem[CONST_ACC_R] = 120 {8:15,}
traffic_breakdown_coretomem[GLOBAL_ACC_R] = 91984 {8:11498,}
traffic_breakdown_coretomem[GLOBAL_ACC_W] = 722896 {40:17887,72:18,136:45,}
traffic_breakdown_coretomem[INST_ACC_R] = 704 {8:88,}
traffic_breakdown_memtocore[CONST_ACC_R] = 1080 {72:15,}
traffic_breakdown_memtocore[GLOBAL_ACC_R] = 1563728 {136:11498,}
traffic_breakdown_memtocore[GLOBAL_ACC_W] = 143600 {8:17950,}
traffic_breakdown_memtocore[INST_ACC_R] = 11968 {136:88,}
maxmrqlatency = 78 
maxdqlatency = 0 
maxmflatency = 634 
averagemflatency = 227 
max_icnt2mem_latency = 366 
max_icnt2sh_latency = 48155 
mrq_lat_table:1199 	96 	43 	54 	14 	6 	1 	0 	0 	0 	0 	0 	0 	0 	0 	0 	0 	0 	0 	0 	0 	0 	0 	0 	0 	0 	0 	0 	0 	0 	0 	0 	
dq_lat_table:0 	0 	0 	0 	0 	0 	0 	0 	0 	0 	0 	0 	0 	0 	0 	0 	0 	0 	0 	0 	0 	0 	0 	0 	0 	0 	0 	0 	0 	0 	0 	0 	
mf_lat_table:0 	0 	0 	0 	0 	0 	0 	19938 	9454 	71 	0 	0 	0 	0 	0 	0 	0 	0 	0 	0 	0 	0 	0 	0 	0 	0 	0 	0 	0 	0 	0 	0 	
icnt2mem_lat_table:0 	0 	0 	11838 	4571 	6228 	4949 	1825 	140 	0 	0 	0 	0 	0 	0 	0 	0 	0 	0 	0 	0 	0 	0 	0 	
icnt2sh_lat_table:0 	0 	0 	2200 	3383 	4891 	1024 	15 	0 	0 	1 	7 	63 	1073 	11611 	5195 	0 	0 	0 	0 	0 	0 	0 	0 	
mf_lat_pw_table:0 	0 	0 	0 	0 	0 	0 	80 	22 	0 	0 	0 	0 	0 	0 	0 	0 	0 	0 	0 	0 	0 	0 	0 	0 	0 	0 	0 	0 	0 	0 	0 	
maximum concurrent accesses to same row:
dram[0]:         1         0         0         0         0         0         0         0         0         0         0         0         0         0         0         0 
dram[1]:         0         0         0         0         0         0         0         0         0         0         0         0         0         0         0         0 
dram[2]:         0         0         0         0         0         0         0         0         0         0         0         0         0         0         0         0 
dram[3]:         0         0         0         0         0         0         0         0         0         0         0         0         0         0         0         0 
dram[4]:         0         0         0         0         0         0         0         0         0         0         0         0         0         0         0         0 
dram[5]:         0         0         0         0         0         0         0         0         0         0         0         0         0         0         0         0 
maximum service time to same row:
dram[0]:       609         0         0         0       654       669       518       537       726       822       850       862         0         0         0         0 
dram[1]:      1125         0         0         0       507       531       526       990       966       871       871       882         0         0         0         0 
dram[2]:       272         0         0         0       644      1454       638       504       972       840       857       866         0         0         0         0 
dram[3]:         0         0         0         0       522       666       640       649       872       960       879       887         0         0         0         0 
dram[4]:         0         0         0         0       521       504      1776       788       965      2699       854       846         0         0         0         0 
dram[5]:         0         0         0         0       503       544       535       641       976       830       875       866         0         0         0         0 
average row accesses per activate:
dram[0]:  1.000000      -nan      -nan      -nan 10.000000 10.000000 32.000000 32.000000 32.000000 32.000000 42.000000 43.000000      -nan      -nan      -nan      -nan 
dram[1]:  2.000000      -nan      -nan      -nan 10.000000 10.000000 32.000000 32.000000 32.000000 32.000000 43.000000 44.000000      -nan      -nan      -nan      -nan 
dram[2]:  2.000000      -nan      -nan      -nan 10.000000 12.000000 32.000000 32.000000 32.000000 32.000000 42.000000 45.000000      -nan      -nan      -nan      -nan 
dram[3]:      -nan      -nan      -nan      -nan 10.000000 12.000000 32.000000 32.000000 32.000000 32.000000 41.000000 39.000000      -nan      -nan      -nan      -nan 
dram[4]:      -nan      -nan      -nan      -nan 10.000000 12.000000 32.000000 32.000000 32.000000 32.000000 44.000000 41.000000      -nan      -nan      -nan      -nan 
dram[5]:      -nan      -nan      -nan      -nan 10.000000 12.000000 32.000000 32.000000 32.000000 32.000000 46.000000 40.000000      -nan      -nan      -nan      -nan 
average row locality = 1413/53 = 26.660378
number of total memory accesses made:
dram[0]:         0         0         0         0         0         0         0         0         0         0         0         0         0         0         0         0 
dram[1]:         0         0         0         0         0         0         0         0         0         0         0         0         0         0         0         0 
dram[2]:         0         0         0         0         0         0         0         0         0         0         0         0         0         0         0         0 
dram[3]:         0         0         0         0         0         0         0         0         0         0         0         0         0         0         0         0 
dram[4]:         0         0         0         0         0         0         0         0         0         0         0         0         0         0         0         0 
dram[5]:         0         0         0         0         0         0         0         0         0         0         0         0         0         0         0         0 
total accesses: 0
min_bank_accesses = 0!
min_chip_accesses = 0!
number of total read accesses:
dram[0]:         3         0         0         0        10        10        32        32        32        32        30        30         0         0         0         0 
dram[1]:         2         0         0         0        10        10        32        32        32        32        30        30         0         0         0         0 
dram[2]:         2         0         0         0        10        12        32        32        32        32        30        29         0         0         0         0 
dram[3]:         0         0         0         0        10        12        32        32        32        32        30        28         0         0         0         0 
dram[4]:         0         0         0         0        10        12        32        32        32        32        30        28         0         0         0         0 
dram[5]:         0         0         0         0        10        12        32        32        32        32        30        28         0         0         0         0 
total reads: 1256
min_bank_accesses = 0!
chip skew: 211/208 = 1.01
number of total write accesses:
dram[0]:         0         0         0         0         0         0         0         0         0         0        12        13         0         0         0         0 
dram[1]:         0         0         0         0         0         0         0         0         0         0        13        14         0         0         0         0 
dram[2]:         0         0         0         0         0         0         0         0         0         0        12        16         0         0         0         0 
dram[3]:         0         0         0         0         0         0         0         0         0         0        11        11         0         0         0         0 
dram[4]:         0         0         0         0         0         0         0         0         0         0        14        13         0         0         0         0 
dram[5]:         0         0         0         0         0         0         0         0         0         0        16        12         0         0         0         0 
total reads: 157
min_bank_accesses = 0!
chip skew: 28/22 = 1.27
average mf latency per bank:
dram[0]:       1041    none      none      none        2170      2143      2204      2069      1735      1859      8303      8449    none      none      none      none  
dram[1]:          0    none      none      none        2228      2139      2031      1795      1651      1639      7940      7945    none      none      none      none  
dram[2]:          0    none      none      none        2395      2419      2275      2045      1796      1856      8094     13201    none      none      none      none  
dram[3]:     none      none      none      none        2554      2796      2170      2416      1824      2082      8392     12126    none      none      none      none  
dram[4]:     none      none      none      none        2260      2505      2197      1864      2212      2088      8605     10610    none      none      none      none  
dram[5]:     none      none      none      none        2160      2892      2207      2506      1949      2401      7683     12790    none      none      none      none  
maximum mf latency per bank:
dram[0]:        278         0         0         0       503       387       484       449       634       521       473       511         0         0         0         0
dram[1]:          0         0         0         0       387       384       424       387       469       430       429       411         0         0         0         0
dram[2]:          0         0         0         0       456       474       456       475       486       592       454       631         0         0         0         0
dram[3]:          0         0         0         0       466       586       447       523       415       503       443       607         0         0         0         0
dram[4]:          0         0         0         0       385       414       479       487       471       496       492       483         0         0         0         0
dram[5]:          0         0         0         0       429       518       521       558       491       513       509       592         0         0         0         0
Memory Partition 0: 
Cache L2_bank_000:
MSHR contents

Cache L2_bank_001:
MSHR contents

In Dram Latency Queue (total = 0): 
DRAM[0]: 16 bks, busW=4 BL=8 CL=12, tRRD=2 tCCD=6, tRCD=12 tRAS=28 tRP=12 tRC=40
n_cmd=64720 n_nop=64260 n_act=11 n_pre=2 n_req=236 n_rd=422 n_write=25 bw_util=0.01381
n_activity=2712 dram_eff=0.3296
bk0: 6a 64648i bk1: 0a 64719i bk2: 0a 64721i bk3: 0a 64721i bk4: 20a 64646i bk5: 20a 64621i bk6: 64a 64504i bk7: 64a 64451i bk8: 64a 64549i bk9: 64a 64549i bk10: 60a 64447i bk11: 60a 64424i bk12: 0a 64718i bk13: 0a 64718i bk14: 0a 64718i bk15: 0a 64720i 
dram_util_bins: 0 0 0 0 0 0 0 0 0 0
dram_eff_bins: 0 0 0 0 0 0 0 0 0 0
mrqq: max=2 avg=0.00469716
Memory Partition 1: 
Cache L2_bank_002:
MSHR contents

Cache L2_bank_003:
MSHR contents

In Dram Latency Queue (total = 0): 
DRAM[1]: 16 bks, busW=4 BL=8 CL=12, tRRD=2 tCCD=6, tRCD=12 tRAS=28 tRP=12 tRC=40
n_cmd=64720 n_nop=64264 n_act=9 n_pre=0 n_req=237 n_rd=420 n_write=27 bw_util=0.01381
n_activity=2596 dram_eff=0.3444
bk0: 4a 64698i bk1: 0a 64720i bk2: 0a 64721i bk3: 0a 64723i bk4: 20a 64642i bk5: 20a 64655i bk6: 64a 64518i bk7: 64a 64462i bk8: 64a 64568i bk9: 64a 64533i bk10: 60a 64458i bk11: 60a 64413i bk12: 0a 64717i bk13: 0a 64717i bk14: 0a 64717i bk15: 0a 64717i 
dram_util_bins: 0 0 0 0 0 0 0 0 0 0
dram_eff_bins: 0 0 0 0 0 0 0 0 0 0
mrqq: max=3 avg=0.00369283
Memory Partition 2: 
Cache L2_bank_004:
MSHR contents

Cache L2_bank_005:
MSHR contents

In Dram Latency Queue (total = 0): 
DRAM[2]: 16 bks, busW=4 BL=8 CL=12, tRRD=2 tCCD=6, tRCD=12 tRAS=28 tRP=12 tRC=40
n_cmd=64720 n_nop=64261 n_act=9 n_pre=0 n_req=239 n_rd=422 n_write=28 bw_util=0.01391
n_activity=2750 dram_eff=0.3273
bk0: 4a 64698i bk1: 0a 64720i bk2: 0a 64722i bk3: 0a 64722i bk4: 20a 64662i bk5: 24a 64626i bk6: 64a 64543i bk7: 64a 64509i bk8: 64a 64566i bk9: 64a 64543i bk10: 60a 64436i bk11: 58a 64395i bk12: 0a 64717i bk13: 0a 64718i bk14: 0a 64719i bk15: 0a 64720i 
dram_util_bins: 0 0 0 0 0 0 0 0 0 0
dram_eff_bins: 0 0 0 0 0 0 0 0 0 0
mrqq: max=2 avg=0.00205501
Memory Partition 3: 
Cache L2_bank_006:
MSHR contents

Cache L2_bank_007:
MSHR contents

In Dram Latency Queue (total = 0): 
DRAM[3]: 16 bks, busW=4 BL=8 CL=12, tRRD=2 tCCD=6, tRCD=12 tRAS=28 tRP=12 tRC=40
n_cmd=64720 n_nop=64274 n_act=8 n_pre=0 n_req=230 n_rd=416 n_write=22 bw_util=0.01354
n_activity=2518 dram_eff=0.3479
bk0: 0a 64720i bk1: 0a 64721i bk2: 0a 64721i bk3: 0a 64721i bk4: 20a 64642i bk5: 24a 64619i bk6: 64a 64531i bk7: 64a 64478i bk8: 64a 64565i bk9: 64a 64495i bk10: 60a 64438i bk11: 56a 64430i bk12: 0a 64718i bk13: 0a 64718i bk14: 0a 64719i bk15: 0a 64719i 
dram_util_bins: 0 0 0 0 0 0 0 0 0 0
dram_eff_bins: 0 0 0 0 0 0 0 0 0 0
mrqq: max=4 avg=0.00394005
Memory Partition 4: 
Cache L2_bank_008:
MSHR contents

Cache L2_bank_009:
MSHR contents

In Dram Latency Queue (total = 0): 
DRAM[4]: 16 bks, busW=4 BL=8 CL=12, tRRD=2 tCCD=6, tRCD=12 tRAS=28 tRP=12 tRC=40
n_cmd=64720 n_nop=64269 n_act=8 n_pre=0 n_req=235 n_rd=416 n_write=27 bw_util=0.01369
n_activity=2592 dram_eff=0.3418
bk0: 0a 64720i bk1: 0a 64721i bk2: 0a 64722i bk3: 0a 64723i bk4: 20a 64649i bk5: 24a 64603i bk6: 64a 64523i bk7: 64a 64426i bk8: 64a 64537i bk9: 64a 64520i bk10: 60a 64386i bk11: 56a 64416i bk12: 0a 64715i bk13: 0a 64716i bk14: 0a 64718i bk15: 0a 64718i 
dram_util_bins: 0 0 0 0 0 0 0 0 0 0
dram_eff_bins: 0 0 0 0 0 0 0 0 0 0
mrqq: max=5 avg=0.00859085
Memory Partition 5: 
Cache L2_bank_010:
MSHR contents

Cache L2_bank_011:
MSHR contents

In Dram Latency Queue (total = 0): 
DRAM[5]: 16 bks, busW=4 BL=8 CL=12, tRRD=2 tCCD=6, tRCD=12 tRAS=28 tRP=12 tRC=40
n_cmd=64720 n_nop=64268 n_act=8 n_pre=0 n_req=236 n_rd=416 n_write=28 bw_util=0.01372
n_activity=2481 dram_eff=0.3579
bk0: 0a 64719i bk1: 0a 64720i bk2: 0a 64722i bk3: 0a 64722i bk4: 20a 64661i bk5: 24a 64608i bk6: 64a 64512i bk7: 64a 64496i bk8: 64a 64543i bk9: 64a 64475i bk10: 60a 64322i bk11: 56a 64432i bk12: 0a 64716i bk13: 0a 64718i bk14: 0a 64719i bk15: 0a 64719i 
dram_util_bins: 0 0 0 0 0 0 0 0 0 0
dram_eff_bins: 0 0 0 0 0 0 0 0 0 0
mrqq: max=5 avg=0.00840544

========= L2 cache stats =========
L2_cache_bank[0]: Access = 2313, Miss = 107, Miss_rate = 0.046, Pending_hits = 7, Reservation_fails = 225
L2_cache_bank[1]: Access = 2350, Miss = 104, Miss_rate = 0.044, Pending_hits = 1, Reservation_fails = 0
L2_cache_bank[2]: Access = 2223, Miss = 106, Miss_rate = 0.048, Pending_hits = 6, Reservation_fails = 108
L2_cache_bank[3]: Access = 2325, Miss = 104, Miss_rate = 0.045, Pending_hits = 3, Reservation_fails = 0
L2_cache_bank[4]: Access = 2279, Miss = 106, Miss_rate = 0.047, Pending_hits = 2, Reservation_fails = 0
L2_cache_bank[5]: Access = 3153, Miss = 105, Miss_rate = 0.033, Pending_hits = 5, Reservation_fails = 67
L2_cache_bank[6]: Access = 2228, Miss = 104, Miss_rate = 0.047, Pending_hits = 1, Reservation_fails = 0
L2_cache_bank[7]: Access = 2621, Miss = 104, Miss_rate = 0.040, Pending_hits = 1, Reservation_fails = 0
L2_cache_bank[8]: Access = 2403, Miss = 104, Miss_rate = 0.043, Pending_hits = 3, Reservation_fails = 0
L2_cache_bank[9]: Access = 2651, Miss = 104, Miss_rate = 0.039, Pending_hits = 1, Reservation_fails = 0
L2_cache_bank[10]: Access = 2331, Miss = 104, Miss_rate = 0.045, Pending_hits = 2, Reservation_fails = 0
L2_cache_bank[11]: Access = 2674, Miss = 104, Miss_rate = 0.039, Pending_hits = 1, Reservation_fails = 0
L2_total_cache_accesses = 29551
L2_total_cache_misses = 1256
L2_total_cache_miss_rate = 0.0425
L2_total_cache_pending_hits = 33
L2_total_cache_reservation_fails = 400
L2_total_cache_breakdown:
	L2_cache_stats_breakdown[GLOBAL_ACC_R][HIT] = 10382
	L2_cache_stats_breakdown[GLOBAL_ACC_R][HIT_RESERVED] = 5
	L2_cache_stats_breakdown[GLOBAL_ACC_R][MISS] = 1111
	L2_cache_stats_breakdown[CONST_ACC_R][HIT] = 11
	L2_cache_stats_breakdown[CONST_ACC_R][HIT_RESERVED] = 3
	L2_cache_stats_breakdown[CONST_ACC_R][MISS] = 1
	L2_cache_stats_breakdown[CONST_ACC_R][RESERVATION_FAIL] = 109
	L2_cache_stats_breakdown[GLOBAL_ACC_W][HIT] = 17793
	L2_cache_stats_breakdown[GLOBAL_ACC_W][HIT_RESERVED] = 19
	L2_cache_stats_breakdown[GLOBAL_ACC_W][MISS] = 138
	L2_cache_stats_breakdown[GLOBAL_ACC_W][RESERVATION_FAIL] = 67
	L2_cache_stats_breakdown[INST_ACC_R][HIT] = 76
	L2_cache_stats_breakdown[INST_ACC_R][HIT_RESERVED] = 6
	L2_cache_stats_breakdown[INST_ACC_R][MISS] = 6
	L2_cache_stats_breakdown[INST_ACC_R][RESERVATION_FAIL] = 224
L2_cache_data_port_util = 0.102
L2_cache_fill_port_util = 0.009

icnt_total_pkts_mem_to_simt=75925
icnt_total_pkts_simt_to_mem=47654
LD_mem_lat_dist  0 0 0 0 0 0 0 0 0 0 0 0 0 0 0 0 0 0 0 0 0 0 0 0 0 0 0
ST_mem_lat_dist  0 0 0 0 0 0 0 0 0 0 0 0 0 0 0 0 0 0 0 0 0 0 0 0 0 0 0
----------------------------Interconnect-DETAILS--------------------------------
Class 0:
Packet latency average = 8.42647
	minimum = 6
	maximum = 16
Network latency average = 8.29412
	minimum = 6
	maximum = 14
Slowest packet = 59070
Flit latency average = 6.39216
	minimum = 6
	maximum = 10
Slowest flit = 123511
Fragmentation average = 0
	minimum = 0
	maximum = 0
Injected packet rate average = 0.0046553
	minimum = 0 (at node 0)
	maximum = 0.0110906 (at node 8)
Accepted packet rate average = 0.0046553
	minimum = 0 (at node 0)
	maximum = 0.0110906 (at node 8)
Injected flit rate average = 0.0139659
	minimum = 0 (at node 0)
	maximum = 0.0369686 (at node 19)
Accepted flit rate average= 0.0139659
	minimum = 0 (at node 0)
	maximum = 0.0554529 (at node 8)
Injected packet length average = 3
Accepted packet length average = 3
Total in-flight flits = 0 (0 measured)
====== Overall Traffic Statistics ======
====== Traffic class 0 ======
Packet latency average = 16.8513 (16 samples)
	minimum = 6 (16 samples)
	maximum = 86.6875 (16 samples)
Network latency average = 12.5075 (16 samples)
	minimum = 6 (16 samples)
	maximum = 69 (16 samples)
Flit latency average = 12.1489 (16 samples)
	minimum = 6 (16 samples)
	maximum = 66.8125 (16 samples)
Fragmentation average = 0.00421105 (16 samples)
	minimum = 0 (16 samples)
	maximum = 14.3125 (16 samples)
Injected packet rate average = 0.0297874 (16 samples)
	minimum = 0 (16 samples)
	maximum = 0.0867913 (16 samples)
Accepted packet rate average = 0.0297874 (16 samples)
	minimum = 0 (16 samples)
	maximum = 0.0867913 (16 samples)
Injected flit rate average = 0.0582517 (16 samples)
	minimum = 0 (16 samples)
	maximum = 0.131152 (16 samples)
Accepted flit rate average = 0.0582517 (16 samples)
	minimum = 0 (16 samples)
	maximum = 0.205081 (16 samples)
Injected packet size average = 1.95558 (16 samples)
Accepted packet size average = 1.95558 (16 samples)
Hops average = 1 (16 samples)
----------------------------END-of-Interconnect-DETAILS-------------------------


gpgpu_simulation_time = 0 days, 0 hrs, 0 min, 22 sec (22 sec)
gpgpu_simulation_rate = 64658 (inst/sec)
gpgpu_simulation_rate = 2229 (cycle/sec)
Kernel Executed 8 times
Result stored in result.txt
